// Generated for: spectre
// Generated on: May 13 17:48:04 2024
// Design library name: TSMC22ULL_Std_AMP_LIB
// Design cell name: TB_Qu2017_AZC_Pin_3
// Design view name: schematic
simulator lang=spectre
global 0
parameters CAPACITOR_0=810f CAPACITOR_1=404f CAPACITOR_2=310f \
    MOSFET_0_14_L_BIASCM_PMOS=1u MOSFET_0_14_M_BIASCM_PMOS=4 \
    MOSFET_0_14_W_BIASCM_PMOS=1u MOSFET_11_1_L_gm2_PMOS=1u \
    MOSFET_11_1_M_gm2_PMOS=4 MOSFET_11_1_W_gm2_PMOS=1u \
    MOSFET_12_1_L_AZC1_NMOS=1u MOSFET_12_1_M_AZC1_NMOS=4 \
    MOSFET_12_1_W_AZC1_NMOS=1u MOSFET_13_1_L_gmf2_PMOS=1u \
    MOSFET_13_1_M_gmf2_PMOS=4 MOSFET_13_1_W_gmf2_PMOS=1u \
    MOSFET_14_4_L_LOAD1_NMOS=1u MOSFET_14_4_M_LOAD1_NMOS=4 \
    MOSFET_14_4_W_LOAD1_NMOS=1u MOSFET_18_1_L_gm3_NMOS=1u \
    MOSFET_18_1_M_gm3_NMOS=4 MOSFET_18_1_W_gm3_NMOS=1u \
    MOSFET_19_16_L_BIASCM_NMOS=1u MOSFET_19_16_M_BIASCM_NMOS=4 \
    MOSFET_19_16_W_BIASCM_NMOS=1u MOSFET_24_8_L_AZC3_NMOS=1u \
    MOSFET_24_8_M_AZC3_NMOS=4 MOSFET_24_8_W_AZC3_NMOS=1u \
    MOSFET_6_3_L_AZC2_PMOS=1u MOSFET_6_3_M_AZC2_PMOS=4 \
    MOSFET_6_3_W_AZC2_PMOS=1u MOSFET_9_2_L_gm1_PMOS=1u \
    MOSFET_9_2_M_gm1_PMOS=4 MOSFET_9_2_W_gm1_PMOS=1u RESISTOR_0=35K \
    RESISTOR_1=35k RESISTOR_2=350k RESISTOR_3=40k CURRENT_0_BIAS=1u \
    CLOAD=1500p VCM=300m VDD=800m
include "/home/soc/zhihc21/0_Cadence_Lib/T22_new/PDK/TN22CRSP004W1_1_3_1P1A/iPDK_CRN22ULL_shrink_T-N22-CR-SP-004-W1_v1.3_1p1a_20211230_all/models/spectre/crn22ull_1d8_elk_v1d3_1p1_shrink0d855_embedded_usage.scs" section=TTMacro_MOS_MOSCAP

// Library name: TSMC22ULL_Std_AMP_LIB
// Cell name: Qu2017_AZC_Pin_3
// View name: schematic
subckt Qu2017_AZC_Pin_3 GNDA VDDA VINN VINP VOUT
    M7 (net057 net055 VDDA VDDA) pch_ulvt_mac l=MOSFET_6_3_L_AZC2_PMOS w=MOSFET_6_3_W_AZC2_PMOS*1 multi=MOSFET_6_3_M_AZC2_PMOS*2 nf=1 sd=100n ad=((1-int(1/2)*2)*(8.5e-08+((1-1)*1e-07)/2+0)+(1+1-int((1+1)/2)*2)*((1/2)*1e-07))*MOSFET_6_3_W_AZC2_PMOS as=((1-int(1/2)*2)*(8.5e-08+((1-1)*1e-07)/2+0)+(1+1-int((1+1)/2)*2)*(8.5e-08+8.5e-08+(1/2-1)*1e-07+0+0))*MOSFET_6_3_W_AZC2_PMOS pd=(1-int(1/2)*2)*((8.5e-08+((1-1)*1e-07)/2+0)*2+(1+1)*MOSFET_6_3_W_AZC2_PMOS)+(1+1-int((1+1)/2)*2)*(((1/2)*1e-07)*2+1*MOSFET_6_3_W_AZC2_PMOS) ps=(1-int(1/2)*2)*((8.5e-08+((1-1)*1e-07)/2+0)*2+(1+1)*MOSFET_6_3_W_AZC2_PMOS)+(1+1-int((1+1)/2)*2)*((8.5e-08+8.5e-08+(1/2-1)*1e-07+0+0)*2+(1+2)*MOSFET_6_3_W_AZC2_PMOS) spa=120.0n spa1=120.0n dfm_flag=0
    M6 (net055 net055 VDDA VDDA) pch_ulvt_mac l=MOSFET_6_3_L_AZC2_PMOS w=MOSFET_6_3_W_AZC2_PMOS*1 multi=MOSFET_6_3_M_AZC2_PMOS nf=1 sd=100n ad=((1-int(1/2)*2)*(8.5e-08+((1-1)*1e-07)/2+0)+(1+1-int((1+1)/2)*2)*((1/2)*1e-07))*MOSFET_6_3_W_AZC2_PMOS as=((1-int(1/2)*2)*(8.5e-08+((1-1)*1e-07)/2+0)+(1+1-int((1+1)/2)*2)*(8.5e-08+8.5e-08+(1/2-1)*1e-07+0+0))*MOSFET_6_3_W_AZC2_PMOS pd=(1-int(1/2)*2)*((8.5e-08+((1-1)*1e-07)/2+0)*2+(1+1)*MOSFET_6_3_W_AZC2_PMOS)+(1+1-int((1+1)/2)*2)*(((1/2)*1e-07)*2+1*MOSFET_6_3_W_AZC2_PMOS) ps=(1-int(1/2)*2)*((8.5e-08+((1-1)*1e-07)/2+0)*2+(1+1)*MOSFET_6_3_W_AZC2_PMOS)+(1+1-int((1+1)/2)*2)*((8.5e-08+8.5e-08+(1/2-1)*1e-07+0+0)*2+(1+2)*MOSFET_6_3_W_AZC2_PMOS) spa=120.0n spa1=120.0n dfm_flag=0
    M3 (net078 VB1 VDDA VDDA) pch_ulvt_mac l=MOSFET_0_14_L_BIASCM_PMOS w=MOSFET_0_14_W_BIASCM_PMOS*1 multi=6*MOSFET_0_14_M_BIASCM_PMOS nf=1 sd=100n ad=((1-int(1/2)*2)*(8.5e-08+((1-1)*1e-07)/2+0)+(1+1-int((1+1)/2)*2)*((1/2)*1e-07))*MOSFET_0_14_W_BIASCM_PMOS as=((1-int(1/2)*2)*(8.5e-08+((1-1)*1e-07)/2+0)+(1+1-int((1+1)/2)*2)*(8.5e-08+8.5e-08+(1/2-1)*1e-07+0+0))*MOSFET_0_14_W_BIASCM_PMOS pd=(1-int(1/2)*2)*((8.5e-08+((1-1)*1e-07)/2+0)*2+(1+1)*MOSFET_0_14_W_BIASCM_PMOS)+(1+1-int((1+1)/2)*2)*(((1/2)*1e-07)*2+1*MOSFET_0_14_W_BIASCM_PMOS) ps=(1-int(1/2)*2)*((8.5e-08+((1-1)*1e-07)/2+0)*2+(1+1)*MOSFET_0_14_W_BIASCM_PMOS)+(1+1-int((1+1)/2)*2)*((8.5e-08+8.5e-08+(1/2-1)*1e-07+0+0)*2+(1+2)*MOSFET_0_14_W_BIASCM_PMOS) spa=120.0n spa1=120.0n dfm_flag=0
    M13 (VOUT net050 VDDA VDDA) pch_ulvt_mac l=MOSFET_13_1_L_gmf2_PMOS w=MOSFET_13_1_W_gmf2_PMOS*1 multi=MOSFET_13_1_M_gmf2_PMOS nf=1 sd=100n ad=((1-int(1/2)*2)*(8.5e-08+((1-1)*1e-07)/2+0)+(1+1-int((1+1)/2)*2)*((1/2)*1e-07))*MOSFET_13_1_W_gmf2_PMOS as=((1-int(1/2)*2)*(8.5e-08+((1-1)*1e-07)/2+0)+(1+1-int((1+1)/2)*2)*(8.5e-08+8.5e-08+(1/2-1)*1e-07+0+0))*MOSFET_13_1_W_gmf2_PMOS pd=(1-int(1/2)*2)*((8.5e-08+((1-1)*1e-07)/2+0)*2+(1+1)*MOSFET_13_1_W_gmf2_PMOS)+(1+1-int((1+1)/2)*2)*(((1/2)*1e-07)*2+1*MOSFET_13_1_W_gmf2_PMOS) ps=(1-int(1/2)*2)*((8.5e-08+((1-1)*1e-07)/2+0)*2+(1+1)*MOSFET_13_1_W_gmf2_PMOS)+(1+1-int((1+1)/2)*2)*((8.5e-08+8.5e-08+(1/2-1)*1e-07+0+0)*2+(1+2)*MOSFET_13_1_W_gmf2_PMOS) spa=120.0n spa1=120.0n dfm_flag=0
    M8 (net049 VB1 VDDA VDDA) pch_ulvt_mac l=MOSFET_0_14_L_BIASCM_PMOS w=MOSFET_0_14_W_BIASCM_PMOS*1 multi=MOSFET_0_14_M_BIASCM_PMOS*2 nf=1 sd=100n ad=((1-int(1/2)*2)*(8.5e-08+((1-1)*1e-07)/2+0)+(1+1-int((1+1)/2)*2)*((1/2)*1e-07))*MOSFET_0_14_W_BIASCM_PMOS as=((1-int(1/2)*2)*(8.5e-08+((1-1)*1e-07)/2+0)+(1+1-int((1+1)/2)*2)*(8.5e-08+8.5e-08+(1/2-1)*1e-07+0+0))*MOSFET_0_14_W_BIASCM_PMOS pd=(1-int(1/2)*2)*((8.5e-08+((1-1)*1e-07)/2+0)*2+(1+1)*MOSFET_0_14_W_BIASCM_PMOS)+(1+1-int((1+1)/2)*2)*(((1/2)*1e-07)*2+1*MOSFET_0_14_W_BIASCM_PMOS) ps=(1-int(1/2)*2)*((8.5e-08+((1-1)*1e-07)/2+0)*2+(1+1)*MOSFET_0_14_W_BIASCM_PMOS)+(1+1-int((1+1)/2)*2)*((8.5e-08+8.5e-08+(1/2-1)*1e-07+0+0)*2+(1+2)*MOSFET_0_14_W_BIASCM_PMOS) spa=120.0n spa1=120.0n dfm_flag=0
    M11 (net094 net050 VDDA VDDA) pch_ulvt_mac l=MOSFET_11_1_L_gm2_PMOS w=MOSFET_11_1_W_gm2_PMOS*1 multi=MOSFET_11_1_M_gm2_PMOS nf=1 sd=100n ad=((1-int(1/2)*2)*(8.5e-08+((1-1)*1e-07)/2+0)+(1+1-int((1+1)/2)*2)*((1/2)*1e-07))*MOSFET_11_1_W_gm2_PMOS as=((1-int(1/2)*2)*(8.5e-08+((1-1)*1e-07)/2+0)+(1+1-int((1+1)/2)*2)*(8.5e-08+8.5e-08+(1/2-1)*1e-07+0+0))*MOSFET_11_1_W_gm2_PMOS pd=(1-int(1/2)*2)*((8.5e-08+((1-1)*1e-07)/2+0)*2+(1+1)*MOSFET_11_1_W_gm2_PMOS)+(1+1-int((1+1)/2)*2)*(((1/2)*1e-07)*2+1*MOSFET_11_1_W_gm2_PMOS) ps=(1-int(1/2)*2)*((8.5e-08+((1-1)*1e-07)/2+0)*2+(1+1)*MOSFET_11_1_W_gm2_PMOS)+(1+1-int((1+1)/2)*2)*((8.5e-08+8.5e-08+(1/2-1)*1e-07+0+0)*2+(1+2)*MOSFET_11_1_W_gm2_PMOS) spa=120.0n spa1=120.0n dfm_flag=0
    M5 (net050 VOUTN VDDA VDDA) pch_ulvt_mac l=MOSFET_0_14_L_BIASCM_PMOS w=MOSFET_0_14_W_BIASCM_PMOS*1 multi=MOSFET_0_14_M_BIASCM_PMOS nf=1 sd=100n ad=((1-int(1/2)*2)*(8.5e-08+((1-1)*1e-07)/2+0)+(1+1-int((1+1)/2)*2)*((1/2)*1e-07))*MOSFET_0_14_W_BIASCM_PMOS as=((1-int(1/2)*2)*(8.5e-08+((1-1)*1e-07)/2+0)+(1+1-int((1+1)/2)*2)*(8.5e-08+8.5e-08+(1/2-1)*1e-07+0+0))*MOSFET_0_14_W_BIASCM_PMOS pd=(1-int(1/2)*2)*((8.5e-08+((1-1)*1e-07)/2+0)*2+(1+1)*MOSFET_0_14_W_BIASCM_PMOS)+(1+1-int((1+1)/2)*2)*(((1/2)*1e-07)*2+1*MOSFET_0_14_W_BIASCM_PMOS) ps=(1-int(1/2)*2)*((8.5e-08+((1-1)*1e-07)/2+0)*2+(1+1)*MOSFET_0_14_W_BIASCM_PMOS)+(1+1-int((1+1)/2)*2)*((8.5e-08+8.5e-08+(1/2-1)*1e-07+0+0)*2+(1+2)*MOSFET_0_14_W_BIASCM_PMOS) spa=120.0n spa1=120.0n dfm_flag=0
    M4 (VOUTN VOUTN VDDA VDDA) pch_ulvt_mac l=MOSFET_0_14_L_BIASCM_PMOS w=MOSFET_0_14_W_BIASCM_PMOS*1 multi=MOSFET_0_14_M_BIASCM_PMOS nf=1 sd=100n ad=((1-int(1/2)*2)*(8.5e-08+((1-1)*1e-07)/2+0)+(1+1-int((1+1)/2)*2)*((1/2)*1e-07))*MOSFET_0_14_W_BIASCM_PMOS as=((1-int(1/2)*2)*(8.5e-08+((1-1)*1e-07)/2+0)+(1+1-int((1+1)/2)*2)*(8.5e-08+8.5e-08+(1/2-1)*1e-07+0+0))*MOSFET_0_14_W_BIASCM_PMOS pd=(1-int(1/2)*2)*((8.5e-08+((1-1)*1e-07)/2+0)*2+(1+1)*MOSFET_0_14_W_BIASCM_PMOS)+(1+1-int((1+1)/2)*2)*(((1/2)*1e-07)*2+1*MOSFET_0_14_W_BIASCM_PMOS) ps=(1-int(1/2)*2)*((8.5e-08+((1-1)*1e-07)/2+0)*2+(1+1)*MOSFET_0_14_W_BIASCM_PMOS)+(1+1-int((1+1)/2)*2)*((8.5e-08+8.5e-08+(1/2-1)*1e-07+0+0)*2+(1+2)*MOSFET_0_14_W_BIASCM_PMOS) spa=120.0n spa1=120.0n dfm_flag=0
    M10 (net063 VINP net019 net019) pch_ulvt_mac l=MOSFET_9_2_L_gm1_PMOS w=MOSFET_9_2_W_gm1_PMOS*1 multi=MOSFET_9_2_M_gm1_PMOS nf=1 sd=100n ad=((1-int(1/2)*2)*(8.5e-08+((1-1)*1e-07)/2+0)+(1+1-int((1+1)/2)*2)*((1/2)*1e-07))*MOSFET_9_2_W_gm1_PMOS as=((1-int(1/2)*2)*(8.5e-08+((1-1)*1e-07)/2+0)+(1+1-int((1+1)/2)*2)*(8.5e-08+8.5e-08+(1/2-1)*1e-07+0+0))*MOSFET_9_2_W_gm1_PMOS pd=(1-int(1/2)*2)*((8.5e-08+((1-1)*1e-07)/2+0)*2+(1+1)*MOSFET_9_2_W_gm1_PMOS)+(1+1-int((1+1)/2)*2)*(((1/2)*1e-07)*2+1*MOSFET_9_2_W_gm1_PMOS) ps=(1-int(1/2)*2)*((8.5e-08+((1-1)*1e-07)/2+0)*2+(1+1)*MOSFET_9_2_W_gm1_PMOS)+(1+1-int((1+1)/2)*2)*((8.5e-08+8.5e-08+(1/2-1)*1e-07+0+0)*2+(1+2)*MOSFET_9_2_W_gm1_PMOS) spa=120.0n spa1=120.0n dfm_flag=0
    M9 (DM_2 VINN net019 net019) pch_ulvt_mac l=MOSFET_9_2_L_gm1_PMOS w=MOSFET_9_2_W_gm1_PMOS*1 multi=MOSFET_9_2_M_gm1_PMOS nf=1 sd=100n ad=((1-int(1/2)*2)*(8.5e-08+((1-1)*1e-07)/2+0)+(1+1-int((1+1)/2)*2)*((1/2)*1e-07))*MOSFET_9_2_W_gm1_PMOS as=((1-int(1/2)*2)*(8.5e-08+((1-1)*1e-07)/2+0)+(1+1-int((1+1)/2)*2)*(8.5e-08+8.5e-08+(1/2-1)*1e-07+0+0))*MOSFET_9_2_W_gm1_PMOS pd=(1-int(1/2)*2)*((8.5e-08+((1-1)*1e-07)/2+0)*2+(1+1)*MOSFET_9_2_W_gm1_PMOS)+(1+1-int((1+1)/2)*2)*(((1/2)*1e-07)*2+1*MOSFET_9_2_W_gm1_PMOS) ps=(1-int(1/2)*2)*((8.5e-08+((1-1)*1e-07)/2+0)*2+(1+1)*MOSFET_9_2_W_gm1_PMOS)+(1+1-int((1+1)/2)*2)*((8.5e-08+8.5e-08+(1/2-1)*1e-07+0+0)*2+(1+2)*MOSFET_9_2_W_gm1_PMOS) spa=120.0n spa1=120.0n dfm_flag=0
    M2 (net019 VB1 VDDA VDDA) pch_ulvt_mac l=MOSFET_0_14_L_BIASCM_PMOS w=MOSFET_0_14_W_BIASCM_PMOS*1 multi=MOSFET_0_14_M_BIASCM_PMOS*2 nf=1 sd=100n ad=((1-int(1/2)*2)*(8.5e-08+((1-1)*1e-07)/2+0)+(1+1-int((1+1)/2)*2)*((1/2)*1e-07))*MOSFET_0_14_W_BIASCM_PMOS as=((1-int(1/2)*2)*(8.5e-08+((1-1)*1e-07)/2+0)+(1+1-int((1+1)/2)*2)*(8.5e-08+8.5e-08+(1/2-1)*1e-07+0+0))*MOSFET_0_14_W_BIASCM_PMOS pd=(1-int(1/2)*2)*((8.5e-08+((1-1)*1e-07)/2+0)*2+(1+1)*MOSFET_0_14_W_BIASCM_PMOS)+(1+1-int((1+1)/2)*2)*(((1/2)*1e-07)*2+1*MOSFET_0_14_W_BIASCM_PMOS) ps=(1-int(1/2)*2)*((8.5e-08+((1-1)*1e-07)/2+0)*2+(1+1)*MOSFET_0_14_W_BIASCM_PMOS)+(1+1-int((1+1)/2)*2)*((8.5e-08+8.5e-08+(1/2-1)*1e-07+0+0)*2+(1+2)*MOSFET_0_14_W_BIASCM_PMOS) spa=120.0n spa1=120.0n dfm_flag=0
    M1 (VB4 VB1 VDDA VDDA) pch_ulvt_mac l=MOSFET_0_14_L_BIASCM_PMOS w=MOSFET_0_14_W_BIASCM_PMOS*1 multi=MOSFET_0_14_M_BIASCM_PMOS nf=1 sd=100n ad=((1-int(1/2)*2)*(8.5e-08+((1-1)*1e-07)/2+0)+(1+1-int((1+1)/2)*2)*((1/2)*1e-07))*MOSFET_0_14_W_BIASCM_PMOS as=((1-int(1/2)*2)*(8.5e-08+((1-1)*1e-07)/2+0)+(1+1-int((1+1)/2)*2)*(8.5e-08+8.5e-08+(1/2-1)*1e-07+0+0))*MOSFET_0_14_W_BIASCM_PMOS pd=(1-int(1/2)*2)*((8.5e-08+((1-1)*1e-07)/2+0)*2+(1+1)*MOSFET_0_14_W_BIASCM_PMOS)+(1+1-int((1+1)/2)*2)*(((1/2)*1e-07)*2+1*MOSFET_0_14_W_BIASCM_PMOS) ps=(1-int(1/2)*2)*((8.5e-08+((1-1)*1e-07)/2+0)*2+(1+1)*MOSFET_0_14_W_BIASCM_PMOS)+(1+1-int((1+1)/2)*2)*((8.5e-08+8.5e-08+(1/2-1)*1e-07+0+0)*2+(1+2)*MOSFET_0_14_W_BIASCM_PMOS) spa=120.0n spa1=120.0n dfm_flag=0
    M0 (VB1 VB1 VDDA VDDA) pch_ulvt_mac l=MOSFET_0_14_L_BIASCM_PMOS w=MOSFET_0_14_W_BIASCM_PMOS*1 multi=MOSFET_0_14_M_BIASCM_PMOS nf=1 sd=100n ad=((1-int(1/2)*2)*(8.5e-08+((1-1)*1e-07)/2+0)+(1+1-int((1+1)/2)*2)*((1/2)*1e-07))*MOSFET_0_14_W_BIASCM_PMOS as=((1-int(1/2)*2)*(8.5e-08+((1-1)*1e-07)/2+0)+(1+1-int((1+1)/2)*2)*(8.5e-08+8.5e-08+(1/2-1)*1e-07+0+0))*MOSFET_0_14_W_BIASCM_PMOS pd=(1-int(1/2)*2)*((8.5e-08+((1-1)*1e-07)/2+0)*2+(1+1)*MOSFET_0_14_W_BIASCM_PMOS)+(1+1-int((1+1)/2)*2)*(((1/2)*1e-07)*2+1*MOSFET_0_14_W_BIASCM_PMOS) ps=(1-int(1/2)*2)*((8.5e-08+((1-1)*1e-07)/2+0)*2+(1+1)*MOSFET_0_14_W_BIASCM_PMOS)+(1+1-int((1+1)/2)*2)*((8.5e-08+8.5e-08+(1/2-1)*1e-07+0+0)*2+(1+2)*MOSFET_0_14_W_BIASCM_PMOS) spa=120.0n spa1=120.0n dfm_flag=0
    M24 (net049 net057 GNDA GNDA) nch_ulvt_mac l=MOSFET_24_8_L_AZC3_NMOS w=MOSFET_24_8_W_AZC3_NMOS*1 multi=MOSFET_24_8_M_AZC3_NMOS nf=1 sd=100n ad=((1-int(1/2)*2)*(8.5e-08+((1-1)*1e-07)/2+0)+(1+1-int((1+1)/2)*2)*((1/2)*1e-07))*MOSFET_24_8_W_AZC3_NMOS as=((1-int(1/2)*2)*(8.5e-08+((1-1)*1e-07)/2+0)+(1+1-int((1+1)/2)*2)*(8.5e-08+8.5e-08+(1/2-1)*1e-07+0+0))*MOSFET_24_8_W_AZC3_NMOS pd=(1-int(1/2)*2)*((8.5e-08+((1-1)*1e-07)/2+0)*2+(1+1)*MOSFET_24_8_W_AZC3_NMOS)+(1+1-int((1+1)/2)*2)*(((1/2)*1e-07)*2+1*MOSFET_24_8_W_AZC3_NMOS) ps=(1-int(1/2)*2)*((8.5e-08+((1-1)*1e-07)/2+0)*2+(1+1)*MOSFET_24_8_W_AZC3_NMOS)+(1+1-int((1+1)/2)*2)*((8.5e-08+8.5e-08+(1/2-1)*1e-07+0+0)*2+(1+2)*MOSFET_24_8_W_AZC3_NMOS) spa=120.0n spa1=120.0n dfm_flag=0
    M12 (net055 net094 GNDA GNDA) nch_ulvt_mac l=MOSFET_12_1_L_AZC1_NMOS w=MOSFET_12_1_W_AZC1_NMOS*1 multi=MOSFET_12_1_M_AZC1_NMOS nf=1 sd=100n ad=((1-int(1/2)*2)*(8.5e-08+((1-1)*1e-07)/2+0)+(1+1-int((1+1)/2)*2)*((1/2)*1e-07))*MOSFET_12_1_W_AZC1_NMOS as=((1-int(1/2)*2)*(8.5e-08+((1-1)*1e-07)/2+0)+(1+1-int((1+1)/2)*2)*(8.5e-08+8.5e-08+(1/2-1)*1e-07+0+0))*MOSFET_12_1_W_AZC1_NMOS pd=(1-int(1/2)*2)*((8.5e-08+((1-1)*1e-07)/2+0)*2+(1+1)*MOSFET_12_1_W_AZC1_NMOS)+(1+1-int((1+1)/2)*2)*(((1/2)*1e-07)*2+1*MOSFET_12_1_W_AZC1_NMOS) ps=(1-int(1/2)*2)*((8.5e-08+((1-1)*1e-07)/2+0)*2+(1+1)*MOSFET_12_1_W_AZC1_NMOS)+(1+1-int((1+1)/2)*2)*((8.5e-08+8.5e-08+(1/2-1)*1e-07+0+0)*2+(1+2)*MOSFET_12_1_W_AZC1_NMOS) spa=120.0n spa1=120.0n dfm_flag=0
    M16 (net077 DM_2 GNDA GNDA) nch_ulvt_mac l=MOSFET_14_4_L_LOAD1_NMOS w=MOSFET_14_4_W_LOAD1_NMOS*1 multi=MOSFET_14_4_M_LOAD1_NMOS nf=1 sd=100n ad=((1-int(1/2)*2)*(8.5e-08+((1-1)*1e-07)/2+0)+(1+1-int((1+1)/2)*2)*((1/2)*1e-07))*MOSFET_14_4_W_LOAD1_NMOS as=((1-int(1/2)*2)*(8.5e-08+((1-1)*1e-07)/2+0)+(1+1-int((1+1)/2)*2)*(8.5e-08+8.5e-08+(1/2-1)*1e-07+0+0))*MOSFET_14_4_W_LOAD1_NMOS pd=(1-int(1/2)*2)*((8.5e-08+((1-1)*1e-07)/2+0)*2+(1+1)*MOSFET_14_4_W_LOAD1_NMOS)+(1+1-int((1+1)/2)*2)*(((1/2)*1e-07)*2+1*MOSFET_14_4_W_LOAD1_NMOS) ps=(1-int(1/2)*2)*((8.5e-08+((1-1)*1e-07)/2+0)*2+(1+1)*MOSFET_14_4_W_LOAD1_NMOS)+(1+1-int((1+1)/2)*2)*((8.5e-08+8.5e-08+(1/2-1)*1e-07+0+0)*2+(1+2)*MOSFET_14_4_W_LOAD1_NMOS) spa=120.0n spa1=120.0n dfm_flag=0
    M17 (net082 net063 GNDA GNDA) nch_ulvt_mac l=MOSFET_14_4_L_LOAD1_NMOS w=MOSFET_14_4_W_LOAD1_NMOS*1 multi=MOSFET_14_4_M_LOAD1_NMOS nf=1 sd=100n ad=((1-int(1/2)*2)*(8.5e-08+((1-1)*1e-07)/2+0)+(1+1-int((1+1)/2)*2)*((1/2)*1e-07))*MOSFET_14_4_W_LOAD1_NMOS as=((1-int(1/2)*2)*(8.5e-08+((1-1)*1e-07)/2+0)+(1+1-int((1+1)/2)*2)*(8.5e-08+8.5e-08+(1/2-1)*1e-07+0+0))*MOSFET_14_4_W_LOAD1_NMOS pd=(1-int(1/2)*2)*((8.5e-08+((1-1)*1e-07)/2+0)*2+(1+1)*MOSFET_14_4_W_LOAD1_NMOS)+(1+1-int((1+1)/2)*2)*(((1/2)*1e-07)*2+1*MOSFET_14_4_W_LOAD1_NMOS) ps=(1-int(1/2)*2)*((8.5e-08+((1-1)*1e-07)/2+0)*2+(1+1)*MOSFET_14_4_W_LOAD1_NMOS)+(1+1-int((1+1)/2)*2)*((8.5e-08+8.5e-08+(1/2-1)*1e-07+0+0)*2+(1+2)*MOSFET_14_4_W_LOAD1_NMOS) spa=120.0n spa1=120.0n dfm_flag=0
    M18 (VOUT net049 GNDA GNDA) nch_ulvt_mac l=MOSFET_18_1_L_gm3_NMOS w=MOSFET_18_1_W_gm3_NMOS*1 multi=MOSFET_18_1_M_gm3_NMOS nf=1 sd=100n ad=((1-int(1/2)*2)*(8.5e-08+((1-1)*1e-07)/2+0)+(1+1-int((1+1)/2)*2)*((1/2)*1e-07))*MOSFET_18_1_W_gm3_NMOS as=((1-int(1/2)*2)*(8.5e-08+((1-1)*1e-07)/2+0)+(1+1-int((1+1)/2)*2)*(8.5e-08+8.5e-08+(1/2-1)*1e-07+0+0))*MOSFET_18_1_W_gm3_NMOS pd=(1-int(1/2)*2)*((8.5e-08+((1-1)*1e-07)/2+0)*2+(1+1)*MOSFET_18_1_W_gm3_NMOS)+(1+1-int((1+1)/2)*2)*(((1/2)*1e-07)*2+1*MOSFET_18_1_W_gm3_NMOS) ps=(1-int(1/2)*2)*((8.5e-08+((1-1)*1e-07)/2+0)*2+(1+1)*MOSFET_18_1_W_gm3_NMOS)+(1+1-int((1+1)/2)*2)*((8.5e-08+8.5e-08+(1/2-1)*1e-07+0+0)*2+(1+2)*MOSFET_18_1_W_gm3_NMOS) spa=120.0n spa1=120.0n dfm_flag=0
    M22 (net094 net051 GNDA GNDA) nch_ulvt_mac l=MOSFET_24_8_L_AZC3_NMOS w=MOSFET_24_8_W_AZC3_NMOS*1 multi=MOSFET_24_8_M_AZC3_NMOS*4 nf=1 sd=100n ad=((1-int(1/2)*2)*(8.5e-08+((1-1)*1e-07)/2+0)+(1+1-int((1+1)/2)*2)*((1/2)*1e-07))*MOSFET_24_8_W_AZC3_NMOS as=((1-int(1/2)*2)*(8.5e-08+((1-1)*1e-07)/2+0)+(1+1-int((1+1)/2)*2)*(8.5e-08+8.5e-08+(1/2-1)*1e-07+0+0))*MOSFET_24_8_W_AZC3_NMOS pd=(1-int(1/2)*2)*((8.5e-08+((1-1)*1e-07)/2+0)*2+(1+1)*MOSFET_24_8_W_AZC3_NMOS)+(1+1-int((1+1)/2)*2)*(((1/2)*1e-07)*2+1*MOSFET_24_8_W_AZC3_NMOS) ps=(1-int(1/2)*2)*((8.5e-08+((1-1)*1e-07)/2+0)*2+(1+1)*MOSFET_24_8_W_AZC3_NMOS)+(1+1-int((1+1)/2)*2)*((8.5e-08+8.5e-08+(1/2-1)*1e-07+0+0)*2+(1+2)*MOSFET_24_8_W_AZC3_NMOS) spa=120.0n spa1=120.0n dfm_flag=0
    M23 (net057 net043 GNDA GNDA) nch_ulvt_mac l=MOSFET_24_8_L_AZC3_NMOS w=MOSFET_24_8_W_AZC3_NMOS*1 multi=MOSFET_24_8_M_AZC3_NMOS*3 nf=1 sd=100n ad=((1-int(1/2)*2)*(8.5e-08+((1-1)*1e-07)/2+0)+(1+1-int((1+1)/2)*2)*((1/2)*1e-07))*MOSFET_24_8_W_AZC3_NMOS as=((1-int(1/2)*2)*(8.5e-08+((1-1)*1e-07)/2+0)+(1+1-int((1+1)/2)*2)*(8.5e-08+8.5e-08+(1/2-1)*1e-07+0+0))*MOSFET_24_8_W_AZC3_NMOS pd=(1-int(1/2)*2)*((8.5e-08+((1-1)*1e-07)/2+0)*2+(1+1)*MOSFET_24_8_W_AZC3_NMOS)+(1+1-int((1+1)/2)*2)*(((1/2)*1e-07)*2+1*MOSFET_24_8_W_AZC3_NMOS) ps=(1-int(1/2)*2)*((8.5e-08+((1-1)*1e-07)/2+0)*2+(1+1)*MOSFET_24_8_W_AZC3_NMOS)+(1+1-int((1+1)/2)*2)*((8.5e-08+8.5e-08+(1/2-1)*1e-07+0+0)*2+(1+2)*MOSFET_24_8_W_AZC3_NMOS) spa=120.0n spa1=120.0n dfm_flag=0
    M20 (DM_2 VB4 GNDA GNDA) nch_ulvt_mac l=MOSFET_19_16_L_BIASCM_NMOS w=MOSFET_19_16_W_BIASCM_NMOS*7 multi=MOSFET_19_16_M_BIASCM_NMOS nf=7 sd=100n ad=((7-int(7/2)*2)*(8.5e-08+((7-1)*1e-07)/2+0)+(7+1-int((7+1)/2)*2)*((7/2)*1e-07))*MOSFET_19_16_W_BIASCM_NMOS as=((7-int(7/2)*2)*(8.5e-08+((7-1)*1e-07)/2+0)+(7+1-int((7+1)/2)*2)*(8.5e-08+8.5e-08+(7/2-1)*1e-07+0+0))*MOSFET_19_16_W_BIASCM_NMOS pd=(7-int(7/2)*2)*((8.5e-08+((7-1)*1e-07)/2+0)*2+(7+1)*MOSFET_19_16_W_BIASCM_NMOS)+(7+1-int((7+1)/2)*2)*(((7/2)*1e-07)*2+7*MOSFET_19_16_W_BIASCM_NMOS) ps=(7-int(7/2)*2)*((8.5e-08+((7-1)*1e-07)/2+0)*2+(7+1)*MOSFET_19_16_W_BIASCM_NMOS)+(7+1-int((7+1)/2)*2)*((8.5e-08+8.5e-08+(7/2-1)*1e-07+0+0)*2+(7+2)*MOSFET_19_16_W_BIASCM_NMOS) spa=102.748n spa1=102.696n dfm_flag=0
    M14 (VOUTN net077 DM_2 GNDA) nch_ulvt_mac l=MOSFET_14_4_L_LOAD1_NMOS w=MOSFET_14_4_W_LOAD1_NMOS*1 multi=MOSFET_14_4_M_LOAD1_NMOS nf=1 sd=100n ad=((1-int(1/2)*2)*(8.5e-08+((1-1)*1e-07)/2+0)+(1+1-int((1+1)/2)*2)*((1/2)*1e-07))*MOSFET_14_4_W_LOAD1_NMOS as=((1-int(1/2)*2)*(8.5e-08+((1-1)*1e-07)/2+0)+(1+1-int((1+1)/2)*2)*(8.5e-08+8.5e-08+(1/2-1)*1e-07+0+0))*MOSFET_14_4_W_LOAD1_NMOS pd=(1-int(1/2)*2)*((8.5e-08+((1-1)*1e-07)/2+0)*2+(1+1)*MOSFET_14_4_W_LOAD1_NMOS)+(1+1-int((1+1)/2)*2)*(((1/2)*1e-07)*2+1*MOSFET_14_4_W_LOAD1_NMOS) ps=(1-int(1/2)*2)*((8.5e-08+((1-1)*1e-07)/2+0)*2+(1+1)*MOSFET_14_4_W_LOAD1_NMOS)+(1+1-int((1+1)/2)*2)*((8.5e-08+8.5e-08+(1/2-1)*1e-07+0+0)*2+(1+2)*MOSFET_14_4_W_LOAD1_NMOS) spa=120.0n spa1=120.0n dfm_flag=0
    M21 (net063 VB4 GNDA GNDA) nch_ulvt_mac l=MOSFET_19_16_L_BIASCM_NMOS w=MOSFET_19_16_W_BIASCM_NMOS*7 multi=MOSFET_19_16_M_BIASCM_NMOS nf=7 sd=100n ad=((7-int(7/2)*2)*(8.5e-08+((7-1)*1e-07)/2+0)+(7+1-int((7+1)/2)*2)*((7/2)*1e-07))*MOSFET_19_16_W_BIASCM_NMOS as=((7-int(7/2)*2)*(8.5e-08+((7-1)*1e-07)/2+0)+(7+1-int((7+1)/2)*2)*(8.5e-08+8.5e-08+(7/2-1)*1e-07+0+0))*MOSFET_19_16_W_BIASCM_NMOS pd=(7-int(7/2)*2)*((8.5e-08+((7-1)*1e-07)/2+0)*2+(7+1)*MOSFET_19_16_W_BIASCM_NMOS)+(7+1-int((7+1)/2)*2)*(((7/2)*1e-07)*2+7*MOSFET_19_16_W_BIASCM_NMOS) ps=(7-int(7/2)*2)*((8.5e-08+((7-1)*1e-07)/2+0)*2+(7+1)*MOSFET_19_16_W_BIASCM_NMOS)+(7+1-int((7+1)/2)*2)*((8.5e-08+8.5e-08+(7/2-1)*1e-07+0+0)*2+(7+2)*MOSFET_19_16_W_BIASCM_NMOS) spa=102.748n spa1=102.696n dfm_flag=0
    M15 (net050 net082 net063 GNDA) nch_ulvt_mac l=MOSFET_14_4_L_LOAD1_NMOS w=MOSFET_14_4_W_LOAD1_NMOS*1 multi=MOSFET_14_4_M_LOAD1_NMOS nf=1 sd=100n ad=((1-int(1/2)*2)*(8.5e-08+((1-1)*1e-07)/2+0)+(1+1-int((1+1)/2)*2)*((1/2)*1e-07))*MOSFET_14_4_W_LOAD1_NMOS as=((1-int(1/2)*2)*(8.5e-08+((1-1)*1e-07)/2+0)+(1+1-int((1+1)/2)*2)*(8.5e-08+8.5e-08+(1/2-1)*1e-07+0+0))*MOSFET_14_4_W_LOAD1_NMOS pd=(1-int(1/2)*2)*((8.5e-08+((1-1)*1e-07)/2+0)*2+(1+1)*MOSFET_14_4_W_LOAD1_NMOS)+(1+1-int((1+1)/2)*2)*(((1/2)*1e-07)*2+1*MOSFET_14_4_W_LOAD1_NMOS) ps=(1-int(1/2)*2)*((8.5e-08+((1-1)*1e-07)/2+0)*2+(1+1)*MOSFET_14_4_W_LOAD1_NMOS)+(1+1-int((1+1)/2)*2)*((8.5e-08+8.5e-08+(1/2-1)*1e-07+0+0)*2+(1+2)*MOSFET_14_4_W_LOAD1_NMOS) spa=120.0n spa1=120.0n dfm_flag=0
    M19 (VB4 VB4 GNDA GNDA) nch_ulvt_mac l=MOSFET_19_16_L_BIASCM_NMOS w=MOSFET_19_16_W_BIASCM_NMOS*2 multi=MOSFET_19_16_M_BIASCM_NMOS nf=2 sd=100n ad=((2-int(2/2)*2)*(8.5e-08+((2-1)*1e-07)/2+0)+(2+1-int((2+1)/2)*2)*((2/2)*1e-07))*MOSFET_19_16_W_BIASCM_NMOS as=((2-int(2/2)*2)*(8.5e-08+((2-1)*1e-07)/2+0)+(2+1-int((2+1)/2)*2)*(8.5e-08+8.5e-08+(2/2-1)*1e-07+0+0))*MOSFET_19_16_W_BIASCM_NMOS pd=(2-int(2/2)*2)*((8.5e-08+((2-1)*1e-07)/2+0)*2+(2+1)*MOSFET_19_16_W_BIASCM_NMOS)+(2+1-int((2+1)/2)*2)*(((2/2)*1e-07)*2+2*MOSFET_19_16_W_BIASCM_NMOS) ps=(2-int(2/2)*2)*((8.5e-08+((2-1)*1e-07)/2+0)*2+(2+1)*MOSFET_19_16_W_BIASCM_NMOS)+(2+1-int((2+1)/2)*2)*((8.5e-08+8.5e-08+(2/2-1)*1e-07+0+0)*2+(2+2)*MOSFET_19_16_W_BIASCM_NMOS) spa=109.774n spa1=109.662n dfm_flag=0
    I0 (VB1 GNDA) isource dc=CURRENT_0_BIAS type=dc
    C2 (net043 GNDA) capacitor c=CAPACITOR_2
    C1 (net051 GNDA) capacitor c=CAPACITOR_1
    C0 (net063 VOUT) capacitor c=CAPACITOR_0
    R3 (net057 net043) resistor r=RESISTOR_3
    R2 (net057 net051) resistor r=RESISTOR_2
    R1 (net078 net082) resistor r=RESISTOR_1
    R0 (net078 net077) resistor r=RESISTOR_0
ends Qu2017_AZC_Pin_3
// End of subcircuit definition.

// Library name: TSMC22ULL_Std_AMP_LIB
// Cell name: TB_Qu2017_AZC_Pin_3
// View name: schematic
V8 (VDD_PSRR 0) vsource dc=VDD mag=1 type=dc
V7 (VIN_P_PSRR 0) vsource dc=VCM mag=0 phase=0 type=dc
V6 (VIN_P_CMRR_TB net17) vsource dc=0 mag=1 phase=0 type=dc
V5 (VIN_M_CMRR_TB VOUT_CMRR_TB) vsource dc=0 mag=1 phase=0 type=dc
V3 (net17 0) vsource dc=VCM mag=0 phase=0 type=dc
V2 (VINP 0) vsource dc=VCM mag=1 phase=0 type=dc
V0 (VDD 0) vsource dc=VDD type=dc
C2 (VOUT_PSRR 0) capacitor c=CLOAD
C1 (VOUT_CMRR_TB 0) capacitor c=CLOAD
C0 (VOUT 0) capacitor c=CLOAD
I30 (0 VDD_PSRR VIN_M_PSRR VIN_P_PSRR VOUT_PSRR) Qu2017_AZC_Pin_3
I31 (0 VDD VIN_M VINP VOUT) Qu2017_AZC_Pin_3
I29 (0 VDD VIN_M_CMRR_TB VIN_P_CMRR_TB VOUT_CMRR_TB) Qu2017_AZC_Pin_3
IPRB2 (VOUT_PSRR VIN_M_PSRR) iprobe
IPRB0 (VOUT VIN_M) iprobe
simulatorOptions options psfversion="1.4.0" reltol=1e-3 vabstol=1e-6 \
    iabstol=1e-12 temp=27.0 tnom=27 scalem=1.0 scale=1.0 gmin=1e-12 \
    rforce=1 maxnotes=5 maxwarns=5 digits=5 cols=80 pivrel=1e-3 \
    sensfile="../psf/sens.output" checklimitdest=psf 
ac ac start=0.01 stop=10G annotate=status 
stb stb start=0.01 stop=100G dec=100 probe=IPRB0 localgnd=0 \
    annotate=status 
dcOp dc write="spectre.dc" maxiters=150 maxsteps=10000 annotate=status
dcOpInfo info what=oppoint where=rawfile
dc dc param=temp start=-50 stop=150 oppoint=rawfile maxiters=150 \
    maxsteps=10000 annotate=status
noise ( VOUT 0 ) noise start=1 stop=10G iprobe=V2 annotate=status 
pz ( VOUT 0 ) pz iprobe=V2 freq=1 param=VCM start=0 stop=0.6 
modelParameter info what=models where=rawfile
element info what=inst where=rawfile
outputParameter info what=output where=rawfile
designParamVals info what=parameters where=rawfile
primitives info what=primitives where=rawfile
subckts info what=subckts where=rawfile
save VOUT VINP VOUT_CMRR_TB VOUT_PSRR V8:p 
saveOptions options save=selected
