// Generated for: spectre
// Generated on: May 13 09:28:28 2024
// Design library name: TSMC22ULL_Std_AMP_LIB
// Design cell name: TB_Song_DACFC_Pin_3
// Design view name: schematic
simulator lang=spectre
global 0
parameters _EXPR_2=PULSE_WIDTH*10+1u MOSFET_58_2_L_gmf1_PMOS=1u \
    MOSFET_58_2_M_gmf1_PMOS=4 MOSFET_58_2_W_gmf1_PMOS=1u CAPACITOR_1=0.7p \
    MOSFET_0_8_L_BIASCM_PMOS=1u MOSFET_0_8_M_BIASCM_PMOS=4 \
    MOSFET_0_8_W_BIASCM_PMOS=1u MOSFET_10_1_L_gm2_PMOS=1u \
    MOSFET_10_1_M_gm2_PMOS=4 MOSFET_10_1_W_gm2_PMOS=1u \
    MOSFET_11_1_L_gmf2_PMOS=1u MOSFET_11_1_M_gmf2_PMOS=4 \
    MOSFET_11_1_W_gmf2_PMOS=1u MOSFET_17_7_L_BIASCM_NMOS=1u \
    MOSFET_17_7_M_BIASCM_NMOS=4 MOSFET_17_7_W_BIASCM_NMOS=1u \
    MOSFET_21_2_L_LOAD2_NMOS=1u MOSFET_21_2_M_LOAD2_NMOS=4 \
    MOSFET_21_2_W_LOAD2_NMOS=1u MOSFET_23_1_L_gm3_NMOS=1u \
    MOSFET_23_1_M_gm3_NMOS=4 MOSFET_23_1_W_gm3_NMOS=1u \
    MOSFET_5_2_L_gma1_PMOS=1u MOSFET_5_2_M_gma1_PMOS=4 \
    MOSFET_5_2_W_gma1_PMOS=1u MOSFET_7_1_L_gma2_PMOS=1u \
    MOSFET_7_1_M_gma2_PMOS=4 MOSFET_7_1_W_gma2_PMOS=1u \
    MOSFET_8_2_L_gm1_PMOS=1u MOSFET_8_2_M_gm1_PMOS=4 \
    MOSFET_8_2_W_gm1_PMOS=1u CAPACITOR_0=1.5p CURRENT_0_BIAS=5u CLOAD=500p \
    VCM=300m VDD=800m
include "/home/soc/zhihc21/0_Cadence_Lib/T22/PDK/tsmcN22/../models/spectre/toplevel.scs" section=top_tt

// Library name: TSMC22ULL_Std_AMP_LIB
// Cell name: Song_DACFC_Pin_3
// View name: schematic
subckt Song_DACFC_Pin_3 GNDA VDDA VINN VINP VOUT
    M69 (net3 net70 VDDA VDDA) pch_ulvt_mac l=MOSFET_0_8_L_BIASCM_PMOS w=MOSFET_0_8_W_BIASCM_PMOS*1 multi=MOSFET_0_8_M_BIASCM_PMOS*4 nf=1 sd=100n ad=((1-int(1/2)*2)*(8.5e-08+((1-1)*1e-07)/2+0)+(1+1-int((1+1)/2)*2)*((1/2)*1e-07))*MOSFET_0_8_W_BIASCM_PMOS as=((1-int(1/2)*2)*(8.5e-08+((1-1)*1e-07)/2+0)+(1+1-int((1+1)/2)*2)*(8.5e-08+8.5e-08+(1/2-1)*1e-07+0+0))*MOSFET_0_8_W_BIASCM_PMOS pd=(1-int(1/2)*2)*((8.5e-08+((1-1)*1e-07)/2+0)*2+(1+1)*MOSFET_0_8_W_BIASCM_PMOS)+(1+1-int((1+1)/2)*2)*(((1/2)*1e-07)*2+1*MOSFET_0_8_W_BIASCM_PMOS) ps=(1-int(1/2)*2)*((8.5e-08+((1-1)*1e-07)/2+0)*2+(1+1)*MOSFET_0_8_W_BIASCM_PMOS)+(1+1-int((1+1)/2)*2)*((8.5e-08+8.5e-08+(1/2-1)*1e-07+0+0)*2+(1+2)*MOSFET_0_8_W_BIASCM_PMOS) spa=120.0n spa1=120.0n dfm_flag=0
    M68 (net2 net70 VDDA VDDA) pch_ulvt_mac l=MOSFET_0_8_L_BIASCM_PMOS w=MOSFET_0_8_W_BIASCM_PMOS*1 multi=MOSFET_0_8_M_BIASCM_PMOS*4 nf=1 sd=100n ad=((1-int(1/2)*2)*(8.5e-08+((1-1)*1e-07)/2+0)+(1+1-int((1+1)/2)*2)*((1/2)*1e-07))*MOSFET_0_8_W_BIASCM_PMOS as=((1-int(1/2)*2)*(8.5e-08+((1-1)*1e-07)/2+0)+(1+1-int((1+1)/2)*2)*(8.5e-08+8.5e-08+(1/2-1)*1e-07+0+0))*MOSFET_0_8_W_BIASCM_PMOS pd=(1-int(1/2)*2)*((8.5e-08+((1-1)*1e-07)/2+0)*2+(1+1)*MOSFET_0_8_W_BIASCM_PMOS)+(1+1-int((1+1)/2)*2)*(((1/2)*1e-07)*2+1*MOSFET_0_8_W_BIASCM_PMOS) ps=(1-int(1/2)*2)*((8.5e-08+((1-1)*1e-07)/2+0)*2+(1+1)*MOSFET_0_8_W_BIASCM_PMOS)+(1+1-int((1+1)/2)*2)*((8.5e-08+8.5e-08+(1/2-1)*1e-07+0+0)*2+(1+2)*MOSFET_0_8_W_BIASCM_PMOS) spa=120.0n spa1=120.0n dfm_flag=0
    M63 (net70 DM_1 net2 VDDA) pch_ulvt_mac l=MOSFET_0_8_L_BIASCM_PMOS w=MOSFET_0_8_W_BIASCM_PMOS*1 multi=MOSFET_0_8_M_BIASCM_PMOS*4 nf=1 sd=100n ad=((1-int(1/2)*2)*(8.5e-08+((1-1)*1e-07)/2+0)+(1+1-int((1+1)/2)*2)*((1/2)*1e-07))*MOSFET_0_8_W_BIASCM_PMOS as=((1-int(1/2)*2)*(8.5e-08+((1-1)*1e-07)/2+0)+(1+1-int((1+1)/2)*2)*(8.5e-08+8.5e-08+(1/2-1)*1e-07+0+0))*MOSFET_0_8_W_BIASCM_PMOS pd=(1-int(1/2)*2)*((8.5e-08+((1-1)*1e-07)/2+0)*2+(1+1)*MOSFET_0_8_W_BIASCM_PMOS)+(1+1-int((1+1)/2)*2)*(((1/2)*1e-07)*2+1*MOSFET_0_8_W_BIASCM_PMOS) ps=(1-int(1/2)*2)*((8.5e-08+((1-1)*1e-07)/2+0)*2+(1+1)*MOSFET_0_8_W_BIASCM_PMOS)+(1+1-int((1+1)/2)*2)*((8.5e-08+8.5e-08+(1/2-1)*1e-07+0+0)*2+(1+2)*MOSFET_0_8_W_BIASCM_PMOS) spa=120.0n spa1=120.0n dfm_flag=0
    M62 (VOUTN DM_1 net3 VDDA) pch_ulvt_mac l=MOSFET_0_8_L_BIASCM_PMOS w=MOSFET_0_8_W_BIASCM_PMOS*1 multi=MOSFET_0_8_M_BIASCM_PMOS*4 nf=1 sd=100n ad=((1-int(1/2)*2)*(8.5e-08+((1-1)*1e-07)/2+0)+(1+1-int((1+1)/2)*2)*((1/2)*1e-07))*MOSFET_0_8_W_BIASCM_PMOS as=((1-int(1/2)*2)*(8.5e-08+((1-1)*1e-07)/2+0)+(1+1-int((1+1)/2)*2)*(8.5e-08+8.5e-08+(1/2-1)*1e-07+0+0))*MOSFET_0_8_W_BIASCM_PMOS pd=(1-int(1/2)*2)*((8.5e-08+((1-1)*1e-07)/2+0)*2+(1+1)*MOSFET_0_8_W_BIASCM_PMOS)+(1+1-int((1+1)/2)*2)*(((1/2)*1e-07)*2+1*MOSFET_0_8_W_BIASCM_PMOS) ps=(1-int(1/2)*2)*((8.5e-08+((1-1)*1e-07)/2+0)*2+(1+1)*MOSFET_0_8_W_BIASCM_PMOS)+(1+1-int((1+1)/2)*2)*((8.5e-08+8.5e-08+(1/2-1)*1e-07+0+0)*2+(1+2)*MOSFET_0_8_W_BIASCM_PMOS) spa=120.0n spa1=120.0n dfm_flag=0
    M61 (net4 DM_1 net050 VDDA) pch_ulvt_mac l=MOSFET_0_8_L_BIASCM_PMOS w=MOSFET_0_8_W_BIASCM_PMOS*1 multi=MOSFET_0_8_M_BIASCM_PMOS*4 nf=1 sd=100n ad=((1-int(1/2)*2)*(8.5e-08+((1-1)*1e-07)/2+0)+(1+1-int((1+1)/2)*2)*((1/2)*1e-07))*MOSFET_0_8_W_BIASCM_PMOS as=((1-int(1/2)*2)*(8.5e-08+((1-1)*1e-07)/2+0)+(1+1-int((1+1)/2)*2)*(8.5e-08+8.5e-08+(1/2-1)*1e-07+0+0))*MOSFET_0_8_W_BIASCM_PMOS pd=(1-int(1/2)*2)*((8.5e-08+((1-1)*1e-07)/2+0)*2+(1+1)*MOSFET_0_8_W_BIASCM_PMOS)+(1+1-int((1+1)/2)*2)*(((1/2)*1e-07)*2+1*MOSFET_0_8_W_BIASCM_PMOS) ps=(1-int(1/2)*2)*((8.5e-08+((1-1)*1e-07)/2+0)*2+(1+1)*MOSFET_0_8_W_BIASCM_PMOS)+(1+1-int((1+1)/2)*2)*((8.5e-08+8.5e-08+(1/2-1)*1e-07+0+0)*2+(1+2)*MOSFET_0_8_W_BIASCM_PMOS) spa=120.0n spa1=120.0n dfm_flag=0
    M60 (VOUTN DM_1 net5 VDDA) pch_ulvt_mac l=MOSFET_0_8_L_BIASCM_PMOS w=MOSFET_0_8_W_BIASCM_PMOS*1 multi=MOSFET_0_8_M_BIASCM_PMOS*4 nf=1 sd=100n ad=((1-int(1/2)*2)*(8.5e-08+((1-1)*1e-07)/2+0)+(1+1-int((1+1)/2)*2)*((1/2)*1e-07))*MOSFET_0_8_W_BIASCM_PMOS as=((1-int(1/2)*2)*(8.5e-08+((1-1)*1e-07)/2+0)+(1+1-int((1+1)/2)*2)*(8.5e-08+8.5e-08+(1/2-1)*1e-07+0+0))*MOSFET_0_8_W_BIASCM_PMOS pd=(1-int(1/2)*2)*((8.5e-08+((1-1)*1e-07)/2+0)*2+(1+1)*MOSFET_0_8_W_BIASCM_PMOS)+(1+1-int((1+1)/2)*2)*(((1/2)*1e-07)*2+1*MOSFET_0_8_W_BIASCM_PMOS) ps=(1-int(1/2)*2)*((8.5e-08+((1-1)*1e-07)/2+0)*2+(1+1)*MOSFET_0_8_W_BIASCM_PMOS)+(1+1-int((1+1)/2)*2)*((8.5e-08+8.5e-08+(1/2-1)*1e-07+0+0)*2+(1+2)*MOSFET_0_8_W_BIASCM_PMOS) spa=120.0n spa1=120.0n dfm_flag=0
    M59 (net1 net013 VDDA VDDA) pch_ulvt_mac l=MOSFET_0_8_L_BIASCM_PMOS w=MOSFET_0_8_W_BIASCM_PMOS*1 multi=2*MOSFET_0_8_M_BIASCM_PMOS nf=1 sd=100n ad=((1-int(1/2)*2)*(8.5e-08+((1-1)*1e-07)/2+0)+(1+1-int((1+1)/2)*2)*((1/2)*1e-07))*MOSFET_0_8_W_BIASCM_PMOS as=((1-int(1/2)*2)*(8.5e-08+((1-1)*1e-07)/2+0)+(1+1-int((1+1)/2)*2)*(8.5e-08+8.5e-08+(1/2-1)*1e-07+0+0))*MOSFET_0_8_W_BIASCM_PMOS pd=(1-int(1/2)*2)*((8.5e-08+((1-1)*1e-07)/2+0)*2+(1+1)*MOSFET_0_8_W_BIASCM_PMOS)+(1+1-int((1+1)/2)*2)*(((1/2)*1e-07)*2+1*MOSFET_0_8_W_BIASCM_PMOS) ps=(1-int(1/2)*2)*((8.5e-08+((1-1)*1e-07)/2+0)*2+(1+1)*MOSFET_0_8_W_BIASCM_PMOS)+(1+1-int((1+1)/2)*2)*((8.5e-08+8.5e-08+(1/2-1)*1e-07+0+0)*2+(1+2)*MOSFET_0_8_W_BIASCM_PMOS) spa=120.0n spa1=120.0n dfm_flag=0
    M58 (net049 VINP net1 net1) pch_ulvt_mac l=MOSFET_58_2_L_gmf1_PMOS w=MOSFET_58_2_W_gmf1_PMOS*1 multi=MOSFET_58_2_M_gmf1_PMOS nf=1 sd=100n ad=((1-int(1/2)*2)*(8.5e-08+((1-1)*1e-07)/2+0)+(1+1-int((1+1)/2)*2)*((1/2)*1e-07))*MOSFET_58_2_W_gmf1_PMOS as=((1-int(1/2)*2)*(8.5e-08+((1-1)*1e-07)/2+0)+(1+1-int((1+1)/2)*2)*(8.5e-08+8.5e-08+(1/2-1)*1e-07+0+0))*MOSFET_58_2_W_gmf1_PMOS pd=(1-int(1/2)*2)*((8.5e-08+((1-1)*1e-07)/2+0)*2+(1+1)*MOSFET_58_2_W_gmf1_PMOS)+(1+1-int((1+1)/2)*2)*(((1/2)*1e-07)*2+1*MOSFET_58_2_W_gmf1_PMOS) ps=(1-int(1/2)*2)*((8.5e-08+((1-1)*1e-07)/2+0)*2+(1+1)*MOSFET_58_2_W_gmf1_PMOS)+(1+1-int((1+1)/2)*2)*((8.5e-08+8.5e-08+(1/2-1)*1e-07+0+0)*2+(1+2)*MOSFET_58_2_W_gmf1_PMOS) spa=120.0n spa1=120.0n dfm_flag=0
    M57 (net043 VINN net1 net1) pch_ulvt_mac l=MOSFET_58_2_L_gmf1_PMOS w=MOSFET_58_2_W_gmf1_PMOS*1 multi=MOSFET_58_2_M_gmf1_PMOS nf=1 sd=100n ad=((1-int(1/2)*2)*(8.5e-08+((1-1)*1e-07)/2+0)+(1+1-int((1+1)/2)*2)*((1/2)*1e-07))*MOSFET_58_2_W_gmf1_PMOS as=((1-int(1/2)*2)*(8.5e-08+((1-1)*1e-07)/2+0)+(1+1-int((1+1)/2)*2)*(8.5e-08+8.5e-08+(1/2-1)*1e-07+0+0))*MOSFET_58_2_W_gmf1_PMOS pd=(1-int(1/2)*2)*((8.5e-08+((1-1)*1e-07)/2+0)*2+(1+1)*MOSFET_58_2_W_gmf1_PMOS)+(1+1-int((1+1)/2)*2)*(((1/2)*1e-07)*2+1*MOSFET_58_2_W_gmf1_PMOS) ps=(1-int(1/2)*2)*((8.5e-08+((1-1)*1e-07)/2+0)*2+(1+1)*MOSFET_58_2_W_gmf1_PMOS)+(1+1-int((1+1)/2)*2)*((8.5e-08+8.5e-08+(1/2-1)*1e-07+0+0)*2+(1+2)*MOSFET_58_2_W_gmf1_PMOS) spa=120.0n spa1=120.0n dfm_flag=0
    M11 (VOUT net4 VDDA VDDA) pch_ulvt_mac l=MOSFET_11_1_L_gmf2_PMOS w=MOSFET_11_1_W_gmf2_PMOS*1 multi=MOSFET_11_1_M_gmf2_PMOS nf=1 sd=100n ad=((1-int(1/2)*2)*(8.5e-08+((1-1)*1e-07)/2+0)+(1+1-int((1+1)/2)*2)*((1/2)*1e-07))*MOSFET_11_1_W_gmf2_PMOS as=((1-int(1/2)*2)*(8.5e-08+((1-1)*1e-07)/2+0)+(1+1-int((1+1)/2)*2)*(8.5e-08+8.5e-08+(1/2-1)*1e-07+0+0))*MOSFET_11_1_W_gmf2_PMOS pd=(1-int(1/2)*2)*((8.5e-08+((1-1)*1e-07)/2+0)*2+(1+1)*MOSFET_11_1_W_gmf2_PMOS)+(1+1-int((1+1)/2)*2)*(((1/2)*1e-07)*2+1*MOSFET_11_1_W_gmf2_PMOS) ps=(1-int(1/2)*2)*((8.5e-08+((1-1)*1e-07)/2+0)*2+(1+1)*MOSFET_11_1_W_gmf2_PMOS)+(1+1-int((1+1)/2)*2)*((8.5e-08+8.5e-08+(1/2-1)*1e-07+0+0)*2+(1+2)*MOSFET_11_1_W_gmf2_PMOS) spa=120.0n spa1=120.0n dfm_flag=0
    M7 (net049 VOUTN VDDA VDDA) pch_ulvt_mac l=MOSFET_7_1_L_gma2_PMOS w=MOSFET_7_1_W_gma2_PMOS*1 multi=MOSFET_7_1_M_gma2_PMOS nf=1 sd=100n ad=((1-int(1/2)*2)*(8.5e-08+((1-1)*1e-07)/2+0)+(1+1-int((1+1)/2)*2)*((1/2)*1e-07))*MOSFET_7_1_W_gma2_PMOS as=((1-int(1/2)*2)*(8.5e-08+((1-1)*1e-07)/2+0)+(1+1-int((1+1)/2)*2)*(8.5e-08+8.5e-08+(1/2-1)*1e-07+0+0))*MOSFET_7_1_W_gma2_PMOS pd=(1-int(1/2)*2)*((8.5e-08+((1-1)*1e-07)/2+0)*2+(1+1)*MOSFET_7_1_W_gma2_PMOS)+(1+1-int((1+1)/2)*2)*(((1/2)*1e-07)*2+1*MOSFET_7_1_W_gma2_PMOS) ps=(1-int(1/2)*2)*((8.5e-08+((1-1)*1e-07)/2+0)*2+(1+1)*MOSFET_7_1_W_gma2_PMOS)+(1+1-int((1+1)/2)*2)*((8.5e-08+8.5e-08+(1/2-1)*1e-07+0+0)*2+(1+2)*MOSFET_7_1_W_gma2_PMOS) spa=120.0n spa1=120.0n dfm_flag=0
    M10 (net043 net4 VDDA VDDA) pch_ulvt_mac l=MOSFET_10_1_L_gm2_PMOS w=MOSFET_10_1_W_gm2_PMOS*1 multi=MOSFET_10_1_M_gm2_PMOS nf=1 sd=100n ad=((1-int(1/2)*2)*(8.5e-08+((1-1)*1e-07)/2+0)+(1+1-int((1+1)/2)*2)*((1/2)*1e-07))*MOSFET_10_1_W_gm2_PMOS as=((1-int(1/2)*2)*(8.5e-08+((1-1)*1e-07)/2+0)+(1+1-int((1+1)/2)*2)*(8.5e-08+8.5e-08+(1/2-1)*1e-07+0+0))*MOSFET_10_1_W_gm2_PMOS pd=(1-int(1/2)*2)*((8.5e-08+((1-1)*1e-07)/2+0)*2+(1+1)*MOSFET_10_1_W_gm2_PMOS)+(1+1-int((1+1)/2)*2)*(((1/2)*1e-07)*2+1*MOSFET_10_1_W_gm2_PMOS) ps=(1-int(1/2)*2)*((8.5e-08+((1-1)*1e-07)/2+0)*2+(1+1)*MOSFET_10_1_W_gm2_PMOS)+(1+1-int((1+1)/2)*2)*((8.5e-08+8.5e-08+(1/2-1)*1e-07+0+0)*2+(1+2)*MOSFET_10_1_W_gm2_PMOS) spa=120.0n spa1=120.0n dfm_flag=0
    M6 (net050 VOUTN VDDA VDDA) pch_ulvt_mac l=MOSFET_5_2_L_gma1_PMOS w=MOSFET_5_2_W_gma1_PMOS*1 multi=MOSFET_5_2_M_gma1_PMOS nf=1 sd=100n ad=((1-int(1/2)*2)*(8.5e-08+((1-1)*1e-07)/2+0)+(1+1-int((1+1)/2)*2)*((1/2)*1e-07))*MOSFET_5_2_W_gma1_PMOS as=((1-int(1/2)*2)*(8.5e-08+((1-1)*1e-07)/2+0)+(1+1-int((1+1)/2)*2)*(8.5e-08+8.5e-08+(1/2-1)*1e-07+0+0))*MOSFET_5_2_W_gma1_PMOS pd=(1-int(1/2)*2)*((8.5e-08+((1-1)*1e-07)/2+0)*2+(1+1)*MOSFET_5_2_W_gma1_PMOS)+(1+1-int((1+1)/2)*2)*(((1/2)*1e-07)*2+1*MOSFET_5_2_W_gma1_PMOS) ps=(1-int(1/2)*2)*((8.5e-08+((1-1)*1e-07)/2+0)*2+(1+1)*MOSFET_5_2_W_gma1_PMOS)+(1+1-int((1+1)/2)*2)*((8.5e-08+8.5e-08+(1/2-1)*1e-07+0+0)*2+(1+2)*MOSFET_5_2_W_gma1_PMOS) spa=120.0n spa1=120.0n dfm_flag=0
    M5 (net5 VOUTN VDDA VDDA) pch_ulvt_mac l=MOSFET_5_2_L_gma1_PMOS w=MOSFET_5_2_W_gma1_PMOS*1 multi=MOSFET_5_2_M_gma1_PMOS nf=1 sd=100n ad=((1-int(1/2)*2)*(8.5e-08+((1-1)*1e-07)/2+0)+(1+1-int((1+1)/2)*2)*((1/2)*1e-07))*MOSFET_5_2_W_gma1_PMOS as=((1-int(1/2)*2)*(8.5e-08+((1-1)*1e-07)/2+0)+(1+1-int((1+1)/2)*2)*(8.5e-08+8.5e-08+(1/2-1)*1e-07+0+0))*MOSFET_5_2_W_gma1_PMOS pd=(1-int(1/2)*2)*((8.5e-08+((1-1)*1e-07)/2+0)*2+(1+1)*MOSFET_5_2_W_gma1_PMOS)+(1+1-int((1+1)/2)*2)*(((1/2)*1e-07)*2+1*MOSFET_5_2_W_gma1_PMOS) ps=(1-int(1/2)*2)*((8.5e-08+((1-1)*1e-07)/2+0)*2+(1+1)*MOSFET_5_2_W_gma1_PMOS)+(1+1-int((1+1)/2)*2)*((8.5e-08+8.5e-08+(1/2-1)*1e-07+0+0)*2+(1+2)*MOSFET_5_2_W_gma1_PMOS) spa=120.0n spa1=120.0n dfm_flag=0
    M9 (net063 VINP net31 net31) pch_ulvt_mac l=MOSFET_8_2_L_gm1_PMOS w=MOSFET_8_2_W_gm1_PMOS*1 multi=MOSFET_8_2_M_gm1_PMOS nf=1 sd=100n ad=((1-int(1/2)*2)*(8.5e-08+((1-1)*1e-07)/2+0)+(1+1-int((1+1)/2)*2)*((1/2)*1e-07))*MOSFET_8_2_W_gm1_PMOS as=((1-int(1/2)*2)*(8.5e-08+((1-1)*1e-07)/2+0)+(1+1-int((1+1)/2)*2)*(8.5e-08+8.5e-08+(1/2-1)*1e-07+0+0))*MOSFET_8_2_W_gm1_PMOS pd=(1-int(1/2)*2)*((8.5e-08+((1-1)*1e-07)/2+0)*2+(1+1)*MOSFET_8_2_W_gm1_PMOS)+(1+1-int((1+1)/2)*2)*(((1/2)*1e-07)*2+1*MOSFET_8_2_W_gm1_PMOS) ps=(1-int(1/2)*2)*((8.5e-08+((1-1)*1e-07)/2+0)*2+(1+1)*MOSFET_8_2_W_gm1_PMOS)+(1+1-int((1+1)/2)*2)*((8.5e-08+8.5e-08+(1/2-1)*1e-07+0+0)*2+(1+2)*MOSFET_8_2_W_gm1_PMOS) spa=120.0n spa1=120.0n dfm_flag=0
    M8 (DM_2 VINN net31 net31) pch_ulvt_mac l=MOSFET_8_2_L_gm1_PMOS w=MOSFET_8_2_W_gm1_PMOS*1 multi=MOSFET_8_2_M_gm1_PMOS nf=1 sd=100n ad=((1-int(1/2)*2)*(8.5e-08+((1-1)*1e-07)/2+0)+(1+1-int((1+1)/2)*2)*((1/2)*1e-07))*MOSFET_8_2_W_gm1_PMOS as=((1-int(1/2)*2)*(8.5e-08+((1-1)*1e-07)/2+0)+(1+1-int((1+1)/2)*2)*(8.5e-08+8.5e-08+(1/2-1)*1e-07+0+0))*MOSFET_8_2_W_gm1_PMOS pd=(1-int(1/2)*2)*((8.5e-08+((1-1)*1e-07)/2+0)*2+(1+1)*MOSFET_8_2_W_gm1_PMOS)+(1+1-int((1+1)/2)*2)*(((1/2)*1e-07)*2+1*MOSFET_8_2_W_gm1_PMOS) ps=(1-int(1/2)*2)*((8.5e-08+((1-1)*1e-07)/2+0)*2+(1+1)*MOSFET_8_2_W_gm1_PMOS)+(1+1-int((1+1)/2)*2)*((8.5e-08+8.5e-08+(1/2-1)*1e-07+0+0)*2+(1+2)*MOSFET_8_2_W_gm1_PMOS) spa=120.0n spa1=120.0n dfm_flag=0
    M4 (net31 net013 VDDA VDDA) pch_ulvt_mac l=MOSFET_0_8_L_BIASCM_PMOS w=MOSFET_0_8_W_BIASCM_PMOS*1 multi=2*MOSFET_0_8_M_BIASCM_PMOS nf=1 sd=100n ad=((1-int(1/2)*2)*(8.5e-08+((1-1)*1e-07)/2+0)+(1+1-int((1+1)/2)*2)*((1/2)*1e-07))*MOSFET_0_8_W_BIASCM_PMOS as=((1-int(1/2)*2)*(8.5e-08+((1-1)*1e-07)/2+0)+(1+1-int((1+1)/2)*2)*(8.5e-08+8.5e-08+(1/2-1)*1e-07+0+0))*MOSFET_0_8_W_BIASCM_PMOS pd=(1-int(1/2)*2)*((8.5e-08+((1-1)*1e-07)/2+0)*2+(1+1)*MOSFET_0_8_W_BIASCM_PMOS)+(1+1-int((1+1)/2)*2)*(((1/2)*1e-07)*2+1*MOSFET_0_8_W_BIASCM_PMOS) ps=(1-int(1/2)*2)*((8.5e-08+((1-1)*1e-07)/2+0)*2+(1+1)*MOSFET_0_8_W_BIASCM_PMOS)+(1+1-int((1+1)/2)*2)*((8.5e-08+8.5e-08+(1/2-1)*1e-07+0+0)*2+(1+2)*MOSFET_0_8_W_BIASCM_PMOS) spa=120.0n spa1=120.0n dfm_flag=0
    M3 (VB3 net013 VDDA VDDA) pch_ulvt_mac l=MOSFET_0_8_L_BIASCM_PMOS w=MOSFET_0_8_W_BIASCM_PMOS*1 multi=MOSFET_0_8_M_BIASCM_PMOS*4 nf=1 sd=100n ad=((1-int(1/2)*2)*(8.5e-08+((1-1)*1e-07)/2+0)+(1+1-int((1+1)/2)*2)*((1/2)*1e-07))*MOSFET_0_8_W_BIASCM_PMOS as=((1-int(1/2)*2)*(8.5e-08+((1-1)*1e-07)/2+0)+(1+1-int((1+1)/2)*2)*(8.5e-08+8.5e-08+(1/2-1)*1e-07+0+0))*MOSFET_0_8_W_BIASCM_PMOS pd=(1-int(1/2)*2)*((8.5e-08+((1-1)*1e-07)/2+0)*2+(1+1)*MOSFET_0_8_W_BIASCM_PMOS)+(1+1-int((1+1)/2)*2)*(((1/2)*1e-07)*2+1*MOSFET_0_8_W_BIASCM_PMOS) ps=(1-int(1/2)*2)*((8.5e-08+((1-1)*1e-07)/2+0)*2+(1+1)*MOSFET_0_8_W_BIASCM_PMOS)+(1+1-int((1+1)/2)*2)*((8.5e-08+8.5e-08+(1/2-1)*1e-07+0+0)*2+(1+2)*MOSFET_0_8_W_BIASCM_PMOS) spa=120.0n spa1=120.0n dfm_flag=0
    M2 (DM_1 DM_1 VDDA VDDA) pch_ulvt_mac l=MOSFET_0_8_L_BIASCM_PMOS w=MOSFET_0_8_W_BIASCM_PMOS*1 multi=MOSFET_0_8_M_BIASCM_PMOS nf=1 sd=100n ad=((1-int(1/2)*2)*(8.5e-08+((1-1)*1e-07)/2+0)+(1+1-int((1+1)/2)*2)*((1/2)*1e-07))*MOSFET_0_8_W_BIASCM_PMOS as=((1-int(1/2)*2)*(8.5e-08+((1-1)*1e-07)/2+0)+(1+1-int((1+1)/2)*2)*(8.5e-08+8.5e-08+(1/2-1)*1e-07+0+0))*MOSFET_0_8_W_BIASCM_PMOS pd=(1-int(1/2)*2)*((8.5e-08+((1-1)*1e-07)/2+0)*2+(1+1)*MOSFET_0_8_W_BIASCM_PMOS)+(1+1-int((1+1)/2)*2)*(((1/2)*1e-07)*2+1*MOSFET_0_8_W_BIASCM_PMOS) ps=(1-int(1/2)*2)*((8.5e-08+((1-1)*1e-07)/2+0)*2+(1+1)*MOSFET_0_8_W_BIASCM_PMOS)+(1+1-int((1+1)/2)*2)*((8.5e-08+8.5e-08+(1/2-1)*1e-07+0+0)*2+(1+2)*MOSFET_0_8_W_BIASCM_PMOS) spa=120.0n spa1=120.0n dfm_flag=0
    M1 (VB4 net013 VDDA VDDA) pch_ulvt_mac l=MOSFET_0_8_L_BIASCM_PMOS w=MOSFET_0_8_W_BIASCM_PMOS*1 multi=MOSFET_0_8_M_BIASCM_PMOS*4 nf=1 sd=100n ad=((1-int(1/2)*2)*(8.5e-08+((1-1)*1e-07)/2+0)+(1+1-int((1+1)/2)*2)*((1/2)*1e-07))*MOSFET_0_8_W_BIASCM_PMOS as=((1-int(1/2)*2)*(8.5e-08+((1-1)*1e-07)/2+0)+(1+1-int((1+1)/2)*2)*(8.5e-08+8.5e-08+(1/2-1)*1e-07+0+0))*MOSFET_0_8_W_BIASCM_PMOS pd=(1-int(1/2)*2)*((8.5e-08+((1-1)*1e-07)/2+0)*2+(1+1)*MOSFET_0_8_W_BIASCM_PMOS)+(1+1-int((1+1)/2)*2)*(((1/2)*1e-07)*2+1*MOSFET_0_8_W_BIASCM_PMOS) ps=(1-int(1/2)*2)*((8.5e-08+((1-1)*1e-07)/2+0)*2+(1+1)*MOSFET_0_8_W_BIASCM_PMOS)+(1+1-int((1+1)/2)*2)*((8.5e-08+8.5e-08+(1/2-1)*1e-07+0+0)*2+(1+2)*MOSFET_0_8_W_BIASCM_PMOS) spa=120.0n spa1=120.0n dfm_flag=0
    M0 (net013 net013 VDDA VDDA) pch_ulvt_mac l=MOSFET_0_8_L_BIASCM_PMOS w=MOSFET_0_8_W_BIASCM_PMOS*1 multi=MOSFET_0_8_M_BIASCM_PMOS*4 nf=1 sd=100n ad=((1-int(1/2)*2)*(8.5e-08+((1-1)*1e-07)/2+0)+(1+1-int((1+1)/2)*2)*((1/2)*1e-07))*MOSFET_0_8_W_BIASCM_PMOS as=((1-int(1/2)*2)*(8.5e-08+((1-1)*1e-07)/2+0)+(1+1-int((1+1)/2)*2)*(8.5e-08+8.5e-08+(1/2-1)*1e-07+0+0))*MOSFET_0_8_W_BIASCM_PMOS pd=(1-int(1/2)*2)*((8.5e-08+((1-1)*1e-07)/2+0)*2+(1+1)*MOSFET_0_8_W_BIASCM_PMOS)+(1+1-int((1+1)/2)*2)*(((1/2)*1e-07)*2+1*MOSFET_0_8_W_BIASCM_PMOS) ps=(1-int(1/2)*2)*((8.5e-08+((1-1)*1e-07)/2+0)*2+(1+1)*MOSFET_0_8_W_BIASCM_PMOS)+(1+1-int((1+1)/2)*2)*((8.5e-08+8.5e-08+(1/2-1)*1e-07+0+0)*2+(1+2)*MOSFET_0_8_W_BIASCM_PMOS) spa=120.0n spa1=120.0n dfm_flag=0
    M71 (VOUTN VB3 net85 GNDA) nch_ulvt_mac l=MOSFET_17_7_L_BIASCM_NMOS w=MOSFET_17_7_W_BIASCM_NMOS*1 multi=MOSFET_17_7_M_BIASCM_NMOS*4 nf=1 sd=100n ad=((1-int(1/2)*2)*(8.5e-08+((1-1)*1e-07)/2+0)+(1+1-int((1+1)/2)*2)*((1/2)*1e-07))*MOSFET_17_7_W_BIASCM_NMOS as=((1-int(1/2)*2)*(8.5e-08+((1-1)*1e-07)/2+0)+(1+1-int((1+1)/2)*2)*(8.5e-08+8.5e-08+(1/2-1)*1e-07+0+0))*MOSFET_17_7_W_BIASCM_NMOS pd=(1-int(1/2)*2)*((8.5e-08+((1-1)*1e-07)/2+0)*2+(1+1)*MOSFET_17_7_W_BIASCM_NMOS)+(1+1-int((1+1)/2)*2)*(((1/2)*1e-07)*2+1*MOSFET_17_7_W_BIASCM_NMOS) ps=(1-int(1/2)*2)*((8.5e-08+((1-1)*1e-07)/2+0)*2+(1+1)*MOSFET_17_7_W_BIASCM_NMOS)+(1+1-int((1+1)/2)*2)*((8.5e-08+8.5e-08+(1/2-1)*1e-07+0+0)*2+(1+2)*MOSFET_17_7_W_BIASCM_NMOS) spa=120.0n spa1=120.0n dfm_flag=0
    M70 (net70 VB3 net69 GNDA) nch_ulvt_mac l=MOSFET_17_7_L_BIASCM_NMOS w=MOSFET_17_7_W_BIASCM_NMOS*1 multi=MOSFET_17_7_M_BIASCM_NMOS*4 nf=1 sd=100n ad=((1-int(1/2)*2)*(8.5e-08+((1-1)*1e-07)/2+0)+(1+1-int((1+1)/2)*2)*((1/2)*1e-07))*MOSFET_17_7_W_BIASCM_NMOS as=((1-int(1/2)*2)*(8.5e-08+((1-1)*1e-07)/2+0)+(1+1-int((1+1)/2)*2)*(8.5e-08+8.5e-08+(1/2-1)*1e-07+0+0))*MOSFET_17_7_W_BIASCM_NMOS pd=(1-int(1/2)*2)*((8.5e-08+((1-1)*1e-07)/2+0)*2+(1+1)*MOSFET_17_7_W_BIASCM_NMOS)+(1+1-int((1+1)/2)*2)*(((1/2)*1e-07)*2+1*MOSFET_17_7_W_BIASCM_NMOS) ps=(1-int(1/2)*2)*((8.5e-08+((1-1)*1e-07)/2+0)*2+(1+1)*MOSFET_17_7_W_BIASCM_NMOS)+(1+1-int((1+1)/2)*2)*((8.5e-08+8.5e-08+(1/2-1)*1e-07+0+0)*2+(1+2)*MOSFET_17_7_W_BIASCM_NMOS) spa=120.0n spa1=120.0n dfm_flag=0
    M65 (net69 VB4 GNDA GNDA) nch_ulvt_mac l=MOSFET_17_7_L_BIASCM_NMOS w=MOSFET_17_7_W_BIASCM_NMOS*1 multi=MOSFET_17_7_M_BIASCM_NMOS*8 nf=1 sd=100n ad=((1-int(1/2)*2)*(8.5e-08+((1-1)*1e-07)/2+0)+(1+1-int((1+1)/2)*2)*((1/2)*1e-07))*MOSFET_17_7_W_BIASCM_NMOS as=((1-int(1/2)*2)*(8.5e-08+((1-1)*1e-07)/2+0)+(1+1-int((1+1)/2)*2)*(8.5e-08+8.5e-08+(1/2-1)*1e-07+0+0))*MOSFET_17_7_W_BIASCM_NMOS pd=(1-int(1/2)*2)*((8.5e-08+((1-1)*1e-07)/2+0)*2+(1+1)*MOSFET_17_7_W_BIASCM_NMOS)+(1+1-int((1+1)/2)*2)*(((1/2)*1e-07)*2+1*MOSFET_17_7_W_BIASCM_NMOS) ps=(1-int(1/2)*2)*((8.5e-08+((1-1)*1e-07)/2+0)*2+(1+1)*MOSFET_17_7_W_BIASCM_NMOS)+(1+1-int((1+1)/2)*2)*((8.5e-08+8.5e-08+(1/2-1)*1e-07+0+0)*2+(1+2)*MOSFET_17_7_W_BIASCM_NMOS) spa=120.0n spa1=120.0n dfm_flag=0
    M64 (net85 VB4 GNDA GNDA) nch_ulvt_mac l=MOSFET_17_7_L_BIASCM_NMOS w=MOSFET_17_7_W_BIASCM_NMOS*1 multi=MOSFET_17_7_M_BIASCM_NMOS*8 nf=1 sd=100n ad=((1-int(1/2)*2)*(8.5e-08+((1-1)*1e-07)/2+0)+(1+1-int((1+1)/2)*2)*((1/2)*1e-07))*MOSFET_17_7_W_BIASCM_NMOS as=((1-int(1/2)*2)*(8.5e-08+((1-1)*1e-07)/2+0)+(1+1-int((1+1)/2)*2)*(8.5e-08+8.5e-08+(1/2-1)*1e-07+0+0))*MOSFET_17_7_W_BIASCM_NMOS pd=(1-int(1/2)*2)*((8.5e-08+((1-1)*1e-07)/2+0)*2+(1+1)*MOSFET_17_7_W_BIASCM_NMOS)+(1+1-int((1+1)/2)*2)*(((1/2)*1e-07)*2+1*MOSFET_17_7_W_BIASCM_NMOS) ps=(1-int(1/2)*2)*((8.5e-08+((1-1)*1e-07)/2+0)*2+(1+1)*MOSFET_17_7_W_BIASCM_NMOS)+(1+1-int((1+1)/2)*2)*((8.5e-08+8.5e-08+(1/2-1)*1e-07+0+0)*2+(1+2)*MOSFET_17_7_W_BIASCM_NMOS) spa=120.0n spa1=120.0n dfm_flag=0
    M23 (VOUT net049 GNDA GNDA) nch_ulvt_mac l=MOSFET_23_1_L_gm3_NMOS w=MOSFET_23_1_W_gm3_NMOS*1 multi=MOSFET_23_1_M_gm3_NMOS nf=1 sd=100n ad=((1-int(1/2)*2)*(8.5e-08+((1-1)*1e-07)/2+0)+(1+1-int((1+1)/2)*2)*((1/2)*1e-07))*MOSFET_23_1_W_gm3_NMOS as=((1-int(1/2)*2)*(8.5e-08+((1-1)*1e-07)/2+0)+(1+1-int((1+1)/2)*2)*(8.5e-08+8.5e-08+(1/2-1)*1e-07+0+0))*MOSFET_23_1_W_gm3_NMOS pd=(1-int(1/2)*2)*((8.5e-08+((1-1)*1e-07)/2+0)*2+(1+1)*MOSFET_23_1_W_gm3_NMOS)+(1+1-int((1+1)/2)*2)*(((1/2)*1e-07)*2+1*MOSFET_23_1_W_gm3_NMOS) ps=(1-int(1/2)*2)*((8.5e-08+((1-1)*1e-07)/2+0)*2+(1+1)*MOSFET_23_1_W_gm3_NMOS)+(1+1-int((1+1)/2)*2)*((8.5e-08+8.5e-08+(1/2-1)*1e-07+0+0)*2+(1+2)*MOSFET_23_1_W_gm3_NMOS) spa=120.0n spa1=120.0n dfm_flag=0
    M22 (net049 net043 GNDA GNDA) nch_ulvt_mac l=MOSFET_21_2_L_LOAD2_NMOS w=MOSFET_21_2_W_LOAD2_NMOS*1 multi=MOSFET_21_2_M_LOAD2_NMOS nf=1 sd=100n ad=((1-int(1/2)*2)*(8.5e-08+((1-1)*1e-07)/2+0)+(1+1-int((1+1)/2)*2)*((1/2)*1e-07))*MOSFET_21_2_W_LOAD2_NMOS as=((1-int(1/2)*2)*(8.5e-08+((1-1)*1e-07)/2+0)+(1+1-int((1+1)/2)*2)*(8.5e-08+8.5e-08+(1/2-1)*1e-07+0+0))*MOSFET_21_2_W_LOAD2_NMOS pd=(1-int(1/2)*2)*((8.5e-08+((1-1)*1e-07)/2+0)*2+(1+1)*MOSFET_21_2_W_LOAD2_NMOS)+(1+1-int((1+1)/2)*2)*(((1/2)*1e-07)*2+1*MOSFET_21_2_W_LOAD2_NMOS) ps=(1-int(1/2)*2)*((8.5e-08+((1-1)*1e-07)/2+0)*2+(1+1)*MOSFET_21_2_W_LOAD2_NMOS)+(1+1-int((1+1)/2)*2)*((8.5e-08+8.5e-08+(1/2-1)*1e-07+0+0)*2+(1+2)*MOSFET_21_2_W_LOAD2_NMOS) spa=120.0n spa1=120.0n dfm_flag=0
    M21 (net043 net043 GNDA GNDA) nch_ulvt_mac l=MOSFET_21_2_L_LOAD2_NMOS w=MOSFET_21_2_W_LOAD2_NMOS*1 multi=MOSFET_21_2_M_LOAD2_NMOS nf=1 sd=100n ad=((1-int(1/2)*2)*(8.5e-08+((1-1)*1e-07)/2+0)+(1+1-int((1+1)/2)*2)*((1/2)*1e-07))*MOSFET_21_2_W_LOAD2_NMOS as=((1-int(1/2)*2)*(8.5e-08+((1-1)*1e-07)/2+0)+(1+1-int((1+1)/2)*2)*(8.5e-08+8.5e-08+(1/2-1)*1e-07+0+0))*MOSFET_21_2_W_LOAD2_NMOS pd=(1-int(1/2)*2)*((8.5e-08+((1-1)*1e-07)/2+0)*2+(1+1)*MOSFET_21_2_W_LOAD2_NMOS)+(1+1-int((1+1)/2)*2)*(((1/2)*1e-07)*2+1*MOSFET_21_2_W_LOAD2_NMOS) ps=(1-int(1/2)*2)*((8.5e-08+((1-1)*1e-07)/2+0)*2+(1+1)*MOSFET_21_2_W_LOAD2_NMOS)+(1+1-int((1+1)/2)*2)*((8.5e-08+8.5e-08+(1/2-1)*1e-07+0+0)*2+(1+2)*MOSFET_21_2_W_LOAD2_NMOS) spa=120.0n spa1=120.0n dfm_flag=0
    M19 (DM_2 VB4 GNDA GNDA) nch_ulvt_mac l=MOSFET_17_7_L_BIASCM_NMOS w=MOSFET_17_7_W_BIASCM_NMOS*1 multi=MOSFET_17_7_M_BIASCM_NMOS*8 nf=1 sd=100n ad=((1-int(1/2)*2)*(8.5e-08+((1-1)*1e-07)/2+0)+(1+1-int((1+1)/2)*2)*((1/2)*1e-07))*MOSFET_17_7_W_BIASCM_NMOS as=((1-int(1/2)*2)*(8.5e-08+((1-1)*1e-07)/2+0)+(1+1-int((1+1)/2)*2)*(8.5e-08+8.5e-08+(1/2-1)*1e-07+0+0))*MOSFET_17_7_W_BIASCM_NMOS pd=(1-int(1/2)*2)*((8.5e-08+((1-1)*1e-07)/2+0)*2+(1+1)*MOSFET_17_7_W_BIASCM_NMOS)+(1+1-int((1+1)/2)*2)*(((1/2)*1e-07)*2+1*MOSFET_17_7_W_BIASCM_NMOS) ps=(1-int(1/2)*2)*((8.5e-08+((1-1)*1e-07)/2+0)*2+(1+1)*MOSFET_17_7_W_BIASCM_NMOS)+(1+1-int((1+1)/2)*2)*((8.5e-08+8.5e-08+(1/2-1)*1e-07+0+0)*2+(1+2)*MOSFET_17_7_W_BIASCM_NMOS) spa=120.0n spa1=120.0n dfm_flag=0
    M15 (VOUTN VB3 DM_2 GNDA) nch_ulvt_mac l=MOSFET_17_7_L_BIASCM_NMOS w=MOSFET_17_7_W_BIASCM_NMOS*1 multi=MOSFET_17_7_M_BIASCM_NMOS*4 nf=1 sd=100n ad=((1-int(1/2)*2)*(8.5e-08+((1-1)*1e-07)/2+0)+(1+1-int((1+1)/2)*2)*((1/2)*1e-07))*MOSFET_17_7_W_BIASCM_NMOS as=((1-int(1/2)*2)*(8.5e-08+((1-1)*1e-07)/2+0)+(1+1-int((1+1)/2)*2)*(8.5e-08+8.5e-08+(1/2-1)*1e-07+0+0))*MOSFET_17_7_W_BIASCM_NMOS pd=(1-int(1/2)*2)*((8.5e-08+((1-1)*1e-07)/2+0)*2+(1+1)*MOSFET_17_7_W_BIASCM_NMOS)+(1+1-int((1+1)/2)*2)*(((1/2)*1e-07)*2+1*MOSFET_17_7_W_BIASCM_NMOS) ps=(1-int(1/2)*2)*((8.5e-08+((1-1)*1e-07)/2+0)*2+(1+1)*MOSFET_17_7_W_BIASCM_NMOS)+(1+1-int((1+1)/2)*2)*((8.5e-08+8.5e-08+(1/2-1)*1e-07+0+0)*2+(1+2)*MOSFET_17_7_W_BIASCM_NMOS) spa=120.0n spa1=120.0n dfm_flag=0
    M20 (net063 VB4 GNDA GNDA) nch_ulvt_mac l=MOSFET_17_7_L_BIASCM_NMOS w=MOSFET_17_7_W_BIASCM_NMOS*1 multi=MOSFET_17_7_M_BIASCM_NMOS*8 nf=1 sd=100n ad=((1-int(1/2)*2)*(8.5e-08+((1-1)*1e-07)/2+0)+(1+1-int((1+1)/2)*2)*((1/2)*1e-07))*MOSFET_17_7_W_BIASCM_NMOS as=((1-int(1/2)*2)*(8.5e-08+((1-1)*1e-07)/2+0)+(1+1-int((1+1)/2)*2)*(8.5e-08+8.5e-08+(1/2-1)*1e-07+0+0))*MOSFET_17_7_W_BIASCM_NMOS pd=(1-int(1/2)*2)*((8.5e-08+((1-1)*1e-07)/2+0)*2+(1+1)*MOSFET_17_7_W_BIASCM_NMOS)+(1+1-int((1+1)/2)*2)*(((1/2)*1e-07)*2+1*MOSFET_17_7_W_BIASCM_NMOS) ps=(1-int(1/2)*2)*((8.5e-08+((1-1)*1e-07)/2+0)*2+(1+1)*MOSFET_17_7_W_BIASCM_NMOS)+(1+1-int((1+1)/2)*2)*((8.5e-08+8.5e-08+(1/2-1)*1e-07+0+0)*2+(1+2)*MOSFET_17_7_W_BIASCM_NMOS) spa=120.0n spa1=120.0n dfm_flag=0
    M16 (net4 VB3 net063 GNDA) nch_ulvt_mac l=MOSFET_17_7_L_BIASCM_NMOS w=MOSFET_17_7_W_BIASCM_NMOS*1 multi=MOSFET_17_7_M_BIASCM_NMOS*4 nf=1 sd=100n ad=((1-int(1/2)*2)*(8.5e-08+((1-1)*1e-07)/2+0)+(1+1-int((1+1)/2)*2)*((1/2)*1e-07))*MOSFET_17_7_W_BIASCM_NMOS as=((1-int(1/2)*2)*(8.5e-08+((1-1)*1e-07)/2+0)+(1+1-int((1+1)/2)*2)*(8.5e-08+8.5e-08+(1/2-1)*1e-07+0+0))*MOSFET_17_7_W_BIASCM_NMOS pd=(1-int(1/2)*2)*((8.5e-08+((1-1)*1e-07)/2+0)*2+(1+1)*MOSFET_17_7_W_BIASCM_NMOS)+(1+1-int((1+1)/2)*2)*(((1/2)*1e-07)*2+1*MOSFET_17_7_W_BIASCM_NMOS) ps=(1-int(1/2)*2)*((8.5e-08+((1-1)*1e-07)/2+0)*2+(1+1)*MOSFET_17_7_W_BIASCM_NMOS)+(1+1-int((1+1)/2)*2)*((8.5e-08+8.5e-08+(1/2-1)*1e-07+0+0)*2+(1+2)*MOSFET_17_7_W_BIASCM_NMOS) spa=120.0n spa1=120.0n dfm_flag=0
    M17 (net54 VB4 GNDA GNDA) nch_ulvt_mac l=MOSFET_17_7_L_BIASCM_NMOS w=MOSFET_17_7_W_BIASCM_NMOS*1 multi=MOSFET_17_7_M_BIASCM_NMOS*4 nf=1 sd=100n ad=((1-int(1/2)*2)*(8.5e-08+((1-1)*1e-07)/2+0)+(1+1-int((1+1)/2)*2)*((1/2)*1e-07))*MOSFET_17_7_W_BIASCM_NMOS as=((1-int(1/2)*2)*(8.5e-08+((1-1)*1e-07)/2+0)+(1+1-int((1+1)/2)*2)*(8.5e-08+8.5e-08+(1/2-1)*1e-07+0+0))*MOSFET_17_7_W_BIASCM_NMOS pd=(1-int(1/2)*2)*((8.5e-08+((1-1)*1e-07)/2+0)*2+(1+1)*MOSFET_17_7_W_BIASCM_NMOS)+(1+1-int((1+1)/2)*2)*(((1/2)*1e-07)*2+1*MOSFET_17_7_W_BIASCM_NMOS) ps=(1-int(1/2)*2)*((8.5e-08+((1-1)*1e-07)/2+0)*2+(1+1)*MOSFET_17_7_W_BIASCM_NMOS)+(1+1-int((1+1)/2)*2)*((8.5e-08+8.5e-08+(1/2-1)*1e-07+0+0)*2+(1+2)*MOSFET_17_7_W_BIASCM_NMOS) spa=120.0n spa1=120.0n dfm_flag=0
    M14 (VB3 VB3 GNDA GNDA) nch_ulvt_mac l=MOSFET_17_7_L_BIASCM_NMOS w=MOSFET_17_7_W_BIASCM_NMOS*1 multi=MOSFET_17_7_M_BIASCM_NMOS nf=1 sd=100n ad=((1-int(1/2)*2)*(8.5e-08+((1-1)*1e-07)/2+0)+(1+1-int((1+1)/2)*2)*((1/2)*1e-07))*MOSFET_17_7_W_BIASCM_NMOS as=((1-int(1/2)*2)*(8.5e-08+((1-1)*1e-07)/2+0)+(1+1-int((1+1)/2)*2)*(8.5e-08+8.5e-08+(1/2-1)*1e-07+0+0))*MOSFET_17_7_W_BIASCM_NMOS pd=(1-int(1/2)*2)*((8.5e-08+((1-1)*1e-07)/2+0)*2+(1+1)*MOSFET_17_7_W_BIASCM_NMOS)+(1+1-int((1+1)/2)*2)*(((1/2)*1e-07)*2+1*MOSFET_17_7_W_BIASCM_NMOS) ps=(1-int(1/2)*2)*((8.5e-08+((1-1)*1e-07)/2+0)*2+(1+1)*MOSFET_17_7_W_BIASCM_NMOS)+(1+1-int((1+1)/2)*2)*((8.5e-08+8.5e-08+(1/2-1)*1e-07+0+0)*2+(1+2)*MOSFET_17_7_W_BIASCM_NMOS) spa=120.0n spa1=120.0n dfm_flag=0
    M12 (VB4 VB3 net54 GNDA) nch_ulvt_mac l=MOSFET_17_7_L_BIASCM_NMOS w=MOSFET_17_7_W_BIASCM_NMOS*1 multi=MOSFET_17_7_M_BIASCM_NMOS*4 nf=1 sd=100n ad=((1-int(1/2)*2)*(8.5e-08+((1-1)*1e-07)/2+0)+(1+1-int((1+1)/2)*2)*((1/2)*1e-07))*MOSFET_17_7_W_BIASCM_NMOS as=((1-int(1/2)*2)*(8.5e-08+((1-1)*1e-07)/2+0)+(1+1-int((1+1)/2)*2)*(8.5e-08+8.5e-08+(1/2-1)*1e-07+0+0))*MOSFET_17_7_W_BIASCM_NMOS pd=(1-int(1/2)*2)*((8.5e-08+((1-1)*1e-07)/2+0)*2+(1+1)*MOSFET_17_7_W_BIASCM_NMOS)+(1+1-int((1+1)/2)*2)*(((1/2)*1e-07)*2+1*MOSFET_17_7_W_BIASCM_NMOS) ps=(1-int(1/2)*2)*((8.5e-08+((1-1)*1e-07)/2+0)*2+(1+1)*MOSFET_17_7_W_BIASCM_NMOS)+(1+1-int((1+1)/2)*2)*((8.5e-08+8.5e-08+(1/2-1)*1e-07+0+0)*2+(1+2)*MOSFET_17_7_W_BIASCM_NMOS) spa=120.0n spa1=120.0n dfm_flag=0
    M18 (net56 VB4 GNDA GNDA) nch_ulvt_mac l=MOSFET_17_7_L_BIASCM_NMOS w=MOSFET_17_7_W_BIASCM_NMOS*1 multi=MOSFET_17_7_M_BIASCM_NMOS*4 nf=1 sd=100n ad=((1-int(1/2)*2)*(8.5e-08+((1-1)*1e-07)/2+0)+(1+1-int((1+1)/2)*2)*((1/2)*1e-07))*MOSFET_17_7_W_BIASCM_NMOS as=((1-int(1/2)*2)*(8.5e-08+((1-1)*1e-07)/2+0)+(1+1-int((1+1)/2)*2)*(8.5e-08+8.5e-08+(1/2-1)*1e-07+0+0))*MOSFET_17_7_W_BIASCM_NMOS pd=(1-int(1/2)*2)*((8.5e-08+((1-1)*1e-07)/2+0)*2+(1+1)*MOSFET_17_7_W_BIASCM_NMOS)+(1+1-int((1+1)/2)*2)*(((1/2)*1e-07)*2+1*MOSFET_17_7_W_BIASCM_NMOS) ps=(1-int(1/2)*2)*((8.5e-08+((1-1)*1e-07)/2+0)*2+(1+1)*MOSFET_17_7_W_BIASCM_NMOS)+(1+1-int((1+1)/2)*2)*((8.5e-08+8.5e-08+(1/2-1)*1e-07+0+0)*2+(1+2)*MOSFET_17_7_W_BIASCM_NMOS) spa=120.0n spa1=120.0n dfm_flag=0
    M13 (DM_1 VB3 net56 GNDA) nch_ulvt_mac l=MOSFET_17_7_L_BIASCM_NMOS w=MOSFET_17_7_W_BIASCM_NMOS*1 multi=MOSFET_17_7_M_BIASCM_NMOS*4 nf=1 sd=100n ad=((1-int(1/2)*2)*(8.5e-08+((1-1)*1e-07)/2+0)+(1+1-int((1+1)/2)*2)*((1/2)*1e-07))*MOSFET_17_7_W_BIASCM_NMOS as=((1-int(1/2)*2)*(8.5e-08+((1-1)*1e-07)/2+0)+(1+1-int((1+1)/2)*2)*(8.5e-08+8.5e-08+(1/2-1)*1e-07+0+0))*MOSFET_17_7_W_BIASCM_NMOS pd=(1-int(1/2)*2)*((8.5e-08+((1-1)*1e-07)/2+0)*2+(1+1)*MOSFET_17_7_W_BIASCM_NMOS)+(1+1-int((1+1)/2)*2)*(((1/2)*1e-07)*2+1*MOSFET_17_7_W_BIASCM_NMOS) ps=(1-int(1/2)*2)*((8.5e-08+((1-1)*1e-07)/2+0)*2+(1+1)*MOSFET_17_7_W_BIASCM_NMOS)+(1+1-int((1+1)/2)*2)*((8.5e-08+8.5e-08+(1/2-1)*1e-07+0+0)*2+(1+2)*MOSFET_17_7_W_BIASCM_NMOS) spa=120.0n spa1=120.0n dfm_flag=0
    I0 (net013 GNDA) isource dc=CURRENT_0_BIAS type=dc
    C2 (net4 GNDA) capacitor c=CAPACITOR_1
    C0 (VOUT net70) capacitor c=CAPACITOR_0
ends Song_DACFC_Pin_3
// End of subcircuit definition.

// Library name: TSMC22ULL_Std_AMP_LIB
// Cell name: TB_Song_DACFC_Pin_3
// View name: schematic
V8 (VDD_PSRR 0) vsource dc=VDD mag=1 type=dc
V7 (VIN_P_PSRR 0) vsource dc=VCM mag=0 phase=0 type=dc
V6 (VIN_P_CMRR_TB net17) vsource dc=0 mag=1 phase=0 type=dc
V5 (VIN_M_CMRR_TB VOUT_CMRR_TB) vsource dc=0 mag=1 phase=0 type=dc
V3 (net17 0) vsource dc=VCM mag=0 phase=0 type=dc
V2 (VINP 0) vsource dc=VCM mag=1 phase=0 type=dc
V0 (VDD 0) vsource dc=VDD type=dc
C2 (VOUT_PSRR 0) capacitor c=CLOAD
C1 (VOUT_CMRR_TB 0) capacitor c=CLOAD
C0 (VOUT 0) capacitor c=CLOAD
I32 (0 VDD VIN_M VINP VOUT) Song_DACFC_Pin_3
I31 (0 VDD_PSRR VIN_M_PSRR VIN_P_PSRR VOUT_PSRR) Song_DACFC_Pin_3
I30 (0 VDD VIN_M_CMRR_TB VIN_P_CMRR_TB VOUT_CMRR_TB) Song_DACFC_Pin_3
IPRB2 (VOUT_PSRR VIN_M_PSRR) iprobe
IPRB0 (VOUT VIN_M) iprobe
simulatorOptions options psfversion="1.4.0" reltol=1e-3 vabstol=1e-6 \
    iabstol=1e-12 temp=27.0 tnom=27 scalem=1.0 scale=1.0 gmin=1e-12 \
    rforce=1 maxnotes=5 maxwarns=5 digits=5 cols=80 pivrel=1e-3 \
    sensfile="../psf/sens.output" checklimitdest=psf 
ac ac start=0.01 stop=10G annotate=status 