*###############
*#   SubCKt    #    
*###############
.SUBCKT PTAT_SENSOR VDDA vsense GNDA
xm0 vdda vsense vsense gnda nch_mac l=200e-9 w=8e-6 multi=8 nf=8 
xm1 vsense vsense gnda gnda nch_mac l=1e-6 w=4e-6 multi=8 nf=4 
.ENDS
