
.SUBCKT PTAT_CLASSIC VDDA vsense GNDA  
xm0 vsense net1 net12 net12 nch_mac l=350n w=2u m=1 nf=1  
xm1 net1 net1 gnda gnda nch_mac l=350n w=2u m=1 nf=1
xm3 vsense vsense VDDA VDDA pch_mac l=300n w=2u m=1 nf=1  
xm4 net1 vsense VDDA VDDA pch_mac l=300n w=2u m=1 nf=1 
r0 net12 gnda 1000  
.ENDS