// Generated for: spectre
// Generated on: May 13 09:59:04 2024
// Design library name: TSMC22ULL_Std_AMP_LIB
// Design cell name: TB_Yan_AZ_Pin_3
// Design view name: schematic
simulator lang=spectre
global 0
parameters _EXPR_2=PULSE_WIDTH*10+1u MOSFET_0_14_L_BIASCM_PMOS=1u \
    MOSFET_0_14_M_BIASCM_PMOS=4 MOSFET_0_14_W_BIASCM_PMOS=1u \
    MOSFET_11_1_L_gm2_PMOS=1u MOSFET_11_1_M_gm2_PMOS=4 \
    MOSFET_11_1_W_gm2_PMOS=1u MOSFET_13_1_L_gmf2_PMOS=1u \
    MOSFET_13_1_M_gmf2_PMOS=4 MOSFET_13_1_W_gmf2_PMOS=1u \
    MOSFET_14_4_L_gm8_NMOS=1u MOSFET_14_4_M_gm8_NMOS=4 \
    MOSFET_14_4_W_gm8_NMOS=1u MOSFET_16_4_L_gm5_NMOS=1u \
    MOSFET_16_4_M_gm5_NMOS=4 MOSFET_16_4_W_gm5_NMOS=1u \
    MOSFET_18_1_L_gm3_NMOS=1u MOSFET_18_1_M_gm3_NMOS=4 \
    MOSFET_18_1_W_gm3_NMOS=1u MOSFET_19_16_L_BIASCM_NMOS=1u \
    MOSFET_19_16_M_BIASCM_NMOS=4 MOSFET_19_16_W_BIASCM_NMOS=1u \
    MOSFET_22_1_L_gmb1_NMOS=1u MOSFET_22_1_M_gmb1_NMOS=4 \
    MOSFET_22_1_W_gmb1_NMOS=1u MOSFET_23_1_L_gmb2_NMOS=1u \
    MOSFET_23_1_M_gmb2_NMOS=4 MOSFET_23_1_W_gmb2_NMOS=1u \
    MOSFET_9_2_L_gm1_PMOS=1u MOSFET_9_2_M_gm1_PMOS=4 \
    MOSFET_9_2_W_gm1_PMOS=1u CURRENT_1_BIAS=5u RESISTOR_0=240k \
    RESISTOR_1=85.7k RESISTOR_2=85.7K CAPACITOR_0=1.4p CAPACITOR_1=1.3p \
    CLOAD=15n VCM=300m VDD=800m
include "/home/soc/zhihc21/0_Cadence_Lib/T22/PDK/tsmcN22/../models/spectre/toplevel.scs" section=top_tt

// Library name: TSMC22ULL_Std_AMP_LIB
// Cell name: Yan_AZ_Pin_3
// View name: schematic
subckt Yan_AZ_Pin_3 GNDA VDDA VINN VINP VOUT
    M67 (net057 VOUTN VDDA VDDA) pch_ulvt_mac l=MOSFET_0_14_L_BIASCM_PMOS w=MOSFET_0_14_W_BIASCM_PMOS*1 multi=MOSFET_0_14_M_BIASCM_PMOS nf=1 sd=100n ad=((1-int(1/2)*2)*(8.5e-08+((1-1)*1e-07)/2+0)+(1+1-int((1+1)/2)*2)*((1/2)*1e-07))*MOSFET_0_14_W_BIASCM_PMOS as=((1-int(1/2)*2)*(8.5e-08+((1-1)*1e-07)/2+0)+(1+1-int((1+1)/2)*2)*(8.5e-08+8.5e-08+(1/2-1)*1e-07+0+0))*MOSFET_0_14_W_BIASCM_PMOS pd=(1-int(1/2)*2)*((8.5e-08+((1-1)*1e-07)/2+0)*2+(1+1)*MOSFET_0_14_W_BIASCM_PMOS)+(1+1-int((1+1)/2)*2)*(((1/2)*1e-07)*2+1*MOSFET_0_14_W_BIASCM_PMOS) ps=(1-int(1/2)*2)*((8.5e-08+((1-1)*1e-07)/2+0)*2+(1+1)*MOSFET_0_14_W_BIASCM_PMOS)+(1+1-int((1+1)/2)*2)*((8.5e-08+8.5e-08+(1/2-1)*1e-07+0+0)*2+(1+2)*MOSFET_0_14_W_BIASCM_PMOS) spa=120.0n spa1=120.0n dfm_flag=0
    M3 (net078 VB1 VDDA VDDA) pch_ulvt_mac l=MOSFET_0_14_L_BIASCM_PMOS w=MOSFET_0_14_W_BIASCM_PMOS*1 multi=4*MOSFET_0_14_M_BIASCM_PMOS nf=1 sd=100n ad=((1-int(1/2)*2)*(8.5e-08+((1-1)*1e-07)/2+0)+(1+1-int((1+1)/2)*2)*((1/2)*1e-07))*MOSFET_0_14_W_BIASCM_PMOS as=((1-int(1/2)*2)*(8.5e-08+((1-1)*1e-07)/2+0)+(1+1-int((1+1)/2)*2)*(8.5e-08+8.5e-08+(1/2-1)*1e-07+0+0))*MOSFET_0_14_W_BIASCM_PMOS pd=(1-int(1/2)*2)*((8.5e-08+((1-1)*1e-07)/2+0)*2+(1+1)*MOSFET_0_14_W_BIASCM_PMOS)+(1+1-int((1+1)/2)*2)*(((1/2)*1e-07)*2+1*MOSFET_0_14_W_BIASCM_PMOS) ps=(1-int(1/2)*2)*((8.5e-08+((1-1)*1e-07)/2+0)*2+(1+1)*MOSFET_0_14_W_BIASCM_PMOS)+(1+1-int((1+1)/2)*2)*((8.5e-08+8.5e-08+(1/2-1)*1e-07+0+0)*2+(1+2)*MOSFET_0_14_W_BIASCM_PMOS) spa=120.0n spa1=120.0n dfm_flag=0
    M13 (VOUT net050 VDDA VDDA) pch_ulvt_mac l=MOSFET_13_1_L_gmf2_PMOS w=MOSFET_13_1_W_gmf2_PMOS*1 multi=MOSFET_13_1_M_gmf2_PMOS nf=1 sd=100n ad=((1-int(1/2)*2)*(8.5e-08+((1-1)*1e-07)/2+0)+(1+1-int((1+1)/2)*2)*((1/2)*1e-07))*MOSFET_13_1_W_gmf2_PMOS as=((1-int(1/2)*2)*(8.5e-08+((1-1)*1e-07)/2+0)+(1+1-int((1+1)/2)*2)*(8.5e-08+8.5e-08+(1/2-1)*1e-07+0+0))*MOSFET_13_1_W_gmf2_PMOS pd=(1-int(1/2)*2)*((8.5e-08+((1-1)*1e-07)/2+0)*2+(1+1)*MOSFET_13_1_W_gmf2_PMOS)+(1+1-int((1+1)/2)*2)*(((1/2)*1e-07)*2+1*MOSFET_13_1_W_gmf2_PMOS) ps=(1-int(1/2)*2)*((8.5e-08+((1-1)*1e-07)/2+0)*2+(1+1)*MOSFET_13_1_W_gmf2_PMOS)+(1+1-int((1+1)/2)*2)*((8.5e-08+8.5e-08+(1/2-1)*1e-07+0+0)*2+(1+2)*MOSFET_13_1_W_gmf2_PMOS) spa=120.0n spa1=120.0n dfm_flag=0
    M11 (net094 net050 VDDA VDDA) pch_ulvt_mac l=MOSFET_11_1_L_gm2_PMOS w=MOSFET_11_1_W_gm2_PMOS*1 multi=MOSFET_11_1_M_gm2_PMOS nf=1 sd=100n ad=((1-int(1/2)*2)*(8.5e-08+((1-1)*1e-07)/2+0)+(1+1-int((1+1)/2)*2)*((1/2)*1e-07))*MOSFET_11_1_W_gm2_PMOS as=((1-int(1/2)*2)*(8.5e-08+((1-1)*1e-07)/2+0)+(1+1-int((1+1)/2)*2)*(8.5e-08+8.5e-08+(1/2-1)*1e-07+0+0))*MOSFET_11_1_W_gm2_PMOS pd=(1-int(1/2)*2)*((8.5e-08+((1-1)*1e-07)/2+0)*2+(1+1)*MOSFET_11_1_W_gm2_PMOS)+(1+1-int((1+1)/2)*2)*(((1/2)*1e-07)*2+1*MOSFET_11_1_W_gm2_PMOS) ps=(1-int(1/2)*2)*((8.5e-08+((1-1)*1e-07)/2+0)*2+(1+1)*MOSFET_11_1_W_gm2_PMOS)+(1+1-int((1+1)/2)*2)*((8.5e-08+8.5e-08+(1/2-1)*1e-07+0+0)*2+(1+2)*MOSFET_11_1_W_gm2_PMOS) spa=120.0n spa1=120.0n dfm_flag=0
    M5 (net050 VOUTN VDDA VDDA) pch_ulvt_mac l=MOSFET_0_14_L_BIASCM_PMOS w=MOSFET_0_14_W_BIASCM_PMOS*1 multi=MOSFET_0_14_M_BIASCM_PMOS nf=1 sd=100n ad=((1-int(1/2)*2)*(8.5e-08+((1-1)*1e-07)/2+0)+(1+1-int((1+1)/2)*2)*((1/2)*1e-07))*MOSFET_0_14_W_BIASCM_PMOS as=((1-int(1/2)*2)*(8.5e-08+((1-1)*1e-07)/2+0)+(1+1-int((1+1)/2)*2)*(8.5e-08+8.5e-08+(1/2-1)*1e-07+0+0))*MOSFET_0_14_W_BIASCM_PMOS pd=(1-int(1/2)*2)*((8.5e-08+((1-1)*1e-07)/2+0)*2+(1+1)*MOSFET_0_14_W_BIASCM_PMOS)+(1+1-int((1+1)/2)*2)*(((1/2)*1e-07)*2+1*MOSFET_0_14_W_BIASCM_PMOS) ps=(1-int(1/2)*2)*((8.5e-08+((1-1)*1e-07)/2+0)*2+(1+1)*MOSFET_0_14_W_BIASCM_PMOS)+(1+1-int((1+1)/2)*2)*((8.5e-08+8.5e-08+(1/2-1)*1e-07+0+0)*2+(1+2)*MOSFET_0_14_W_BIASCM_PMOS) spa=120.0n spa1=120.0n dfm_flag=0
    M4 (VOUTN VOUTN VDDA VDDA) pch_ulvt_mac l=MOSFET_0_14_L_BIASCM_PMOS w=MOSFET_0_14_W_BIASCM_PMOS*1 multi=MOSFET_0_14_M_BIASCM_PMOS nf=1 sd=100n ad=((1-int(1/2)*2)*(8.5e-08+((1-1)*1e-07)/2+0)+(1+1-int((1+1)/2)*2)*((1/2)*1e-07))*MOSFET_0_14_W_BIASCM_PMOS as=((1-int(1/2)*2)*(8.5e-08+((1-1)*1e-07)/2+0)+(1+1-int((1+1)/2)*2)*(8.5e-08+8.5e-08+(1/2-1)*1e-07+0+0))*MOSFET_0_14_W_BIASCM_PMOS pd=(1-int(1/2)*2)*((8.5e-08+((1-1)*1e-07)/2+0)*2+(1+1)*MOSFET_0_14_W_BIASCM_PMOS)+(1+1-int((1+1)/2)*2)*(((1/2)*1e-07)*2+1*MOSFET_0_14_W_BIASCM_PMOS) ps=(1-int(1/2)*2)*((8.5e-08+((1-1)*1e-07)/2+0)*2+(1+1)*MOSFET_0_14_W_BIASCM_PMOS)+(1+1-int((1+1)/2)*2)*((8.5e-08+8.5e-08+(1/2-1)*1e-07+0+0)*2+(1+2)*MOSFET_0_14_W_BIASCM_PMOS) spa=120.0n spa1=120.0n dfm_flag=0
    M10 (net063 VINP net019 net019) pch_ulvt_mac l=MOSFET_9_2_L_gm1_PMOS w=MOSFET_9_2_W_gm1_PMOS*1 multi=MOSFET_9_2_M_gm1_PMOS nf=1 sd=100n ad=((1-int(1/2)*2)*(8.5e-08+((1-1)*1e-07)/2+0)+(1+1-int((1+1)/2)*2)*((1/2)*1e-07))*MOSFET_9_2_W_gm1_PMOS as=((1-int(1/2)*2)*(8.5e-08+((1-1)*1e-07)/2+0)+(1+1-int((1+1)/2)*2)*(8.5e-08+8.5e-08+(1/2-1)*1e-07+0+0))*MOSFET_9_2_W_gm1_PMOS pd=(1-int(1/2)*2)*((8.5e-08+((1-1)*1e-07)/2+0)*2+(1+1)*MOSFET_9_2_W_gm1_PMOS)+(1+1-int((1+1)/2)*2)*(((1/2)*1e-07)*2+1*MOSFET_9_2_W_gm1_PMOS) ps=(1-int(1/2)*2)*((8.5e-08+((1-1)*1e-07)/2+0)*2+(1+1)*MOSFET_9_2_W_gm1_PMOS)+(1+1-int((1+1)/2)*2)*((8.5e-08+8.5e-08+(1/2-1)*1e-07+0+0)*2+(1+2)*MOSFET_9_2_W_gm1_PMOS) spa=120.0n spa1=120.0n dfm_flag=0
    M9 (DM_2 VINN net019 net019) pch_ulvt_mac l=MOSFET_9_2_L_gm1_PMOS w=MOSFET_9_2_W_gm1_PMOS*1 multi=MOSFET_9_2_M_gm1_PMOS nf=1 sd=100n ad=((1-int(1/2)*2)*(8.5e-08+((1-1)*1e-07)/2+0)+(1+1-int((1+1)/2)*2)*((1/2)*1e-07))*MOSFET_9_2_W_gm1_PMOS as=((1-int(1/2)*2)*(8.5e-08+((1-1)*1e-07)/2+0)+(1+1-int((1+1)/2)*2)*(8.5e-08+8.5e-08+(1/2-1)*1e-07+0+0))*MOSFET_9_2_W_gm1_PMOS pd=(1-int(1/2)*2)*((8.5e-08+((1-1)*1e-07)/2+0)*2+(1+1)*MOSFET_9_2_W_gm1_PMOS)+(1+1-int((1+1)/2)*2)*(((1/2)*1e-07)*2+1*MOSFET_9_2_W_gm1_PMOS) ps=(1-int(1/2)*2)*((8.5e-08+((1-1)*1e-07)/2+0)*2+(1+1)*MOSFET_9_2_W_gm1_PMOS)+(1+1-int((1+1)/2)*2)*((8.5e-08+8.5e-08+(1/2-1)*1e-07+0+0)*2+(1+2)*MOSFET_9_2_W_gm1_PMOS) spa=120.0n spa1=120.0n dfm_flag=0
    M2 (net019 VB1 VDDA VDDA) pch_ulvt_mac l=MOSFET_0_14_L_BIASCM_PMOS w=MOSFET_0_14_W_BIASCM_PMOS*1 multi=MOSFET_0_14_M_BIASCM_PMOS*2 nf=1 sd=100n ad=((1-int(1/2)*2)*(8.5e-08+((1-1)*1e-07)/2+0)+(1+1-int((1+1)/2)*2)*((1/2)*1e-07))*MOSFET_0_14_W_BIASCM_PMOS as=((1-int(1/2)*2)*(8.5e-08+((1-1)*1e-07)/2+0)+(1+1-int((1+1)/2)*2)*(8.5e-08+8.5e-08+(1/2-1)*1e-07+0+0))*MOSFET_0_14_W_BIASCM_PMOS pd=(1-int(1/2)*2)*((8.5e-08+((1-1)*1e-07)/2+0)*2+(1+1)*MOSFET_0_14_W_BIASCM_PMOS)+(1+1-int((1+1)/2)*2)*(((1/2)*1e-07)*2+1*MOSFET_0_14_W_BIASCM_PMOS) ps=(1-int(1/2)*2)*((8.5e-08+((1-1)*1e-07)/2+0)*2+(1+1)*MOSFET_0_14_W_BIASCM_PMOS)+(1+1-int((1+1)/2)*2)*((8.5e-08+8.5e-08+(1/2-1)*1e-07+0+0)*2+(1+2)*MOSFET_0_14_W_BIASCM_PMOS) spa=120.0n spa1=120.0n dfm_flag=0
    M1 (VB4 VB1 VDDA VDDA) pch_ulvt_mac l=MOSFET_0_14_L_BIASCM_PMOS w=MOSFET_0_14_W_BIASCM_PMOS*1 multi=MOSFET_0_14_M_BIASCM_PMOS nf=1 sd=100n ad=((1-int(1/2)*2)*(8.5e-08+((1-1)*1e-07)/2+0)+(1+1-int((1+1)/2)*2)*((1/2)*1e-07))*MOSFET_0_14_W_BIASCM_PMOS as=((1-int(1/2)*2)*(8.5e-08+((1-1)*1e-07)/2+0)+(1+1-int((1+1)/2)*2)*(8.5e-08+8.5e-08+(1/2-1)*1e-07+0+0))*MOSFET_0_14_W_BIASCM_PMOS pd=(1-int(1/2)*2)*((8.5e-08+((1-1)*1e-07)/2+0)*2+(1+1)*MOSFET_0_14_W_BIASCM_PMOS)+(1+1-int((1+1)/2)*2)*(((1/2)*1e-07)*2+1*MOSFET_0_14_W_BIASCM_PMOS) ps=(1-int(1/2)*2)*((8.5e-08+((1-1)*1e-07)/2+0)*2+(1+1)*MOSFET_0_14_W_BIASCM_PMOS)+(1+1-int((1+1)/2)*2)*((8.5e-08+8.5e-08+(1/2-1)*1e-07+0+0)*2+(1+2)*MOSFET_0_14_W_BIASCM_PMOS) spa=120.0n spa1=120.0n dfm_flag=0
    M0 (VB1 VB1 VDDA VDDA) pch_ulvt_mac l=MOSFET_0_14_L_BIASCM_PMOS w=MOSFET_0_14_W_BIASCM_PMOS*1 multi=MOSFET_0_14_M_BIASCM_PMOS nf=1 sd=100n ad=((1-int(1/2)*2)*(8.5e-08+((1-1)*1e-07)/2+0)+(1+1-int((1+1)/2)*2)*((1/2)*1e-07))*MOSFET_0_14_W_BIASCM_PMOS as=((1-int(1/2)*2)*(8.5e-08+((1-1)*1e-07)/2+0)+(1+1-int((1+1)/2)*2)*(8.5e-08+8.5e-08+(1/2-1)*1e-07+0+0))*MOSFET_0_14_W_BIASCM_PMOS pd=(1-int(1/2)*2)*((8.5e-08+((1-1)*1e-07)/2+0)*2+(1+1)*MOSFET_0_14_W_BIASCM_PMOS)+(1+1-int((1+1)/2)*2)*(((1/2)*1e-07)*2+1*MOSFET_0_14_W_BIASCM_PMOS) ps=(1-int(1/2)*2)*((8.5e-08+((1-1)*1e-07)/2+0)*2+(1+1)*MOSFET_0_14_W_BIASCM_PMOS)+(1+1-int((1+1)/2)*2)*((8.5e-08+8.5e-08+(1/2-1)*1e-07+0+0)*2+(1+2)*MOSFET_0_14_W_BIASCM_PMOS) spa=120.0n spa1=120.0n dfm_flag=0
    M16 (net077 DM_2 GNDA GNDA) nch_ulvt_mac l=MOSFET_16_4_L_gm5_NMOS w=MOSFET_16_4_W_gm5_NMOS*1 multi=MOSFET_16_4_M_gm5_NMOS nf=1 sd=100n ad=((1-int(1/2)*2)*(8.5e-08+((1-1)*1e-07)/2+0)+(1+1-int((1+1)/2)*2)*((1/2)*1e-07))*MOSFET_16_4_W_gm5_NMOS as=((1-int(1/2)*2)*(8.5e-08+((1-1)*1e-07)/2+0)+(1+1-int((1+1)/2)*2)*(8.5e-08+8.5e-08+(1/2-1)*1e-07+0+0))*MOSFET_16_4_W_gm5_NMOS pd=(1-int(1/2)*2)*((8.5e-08+((1-1)*1e-07)/2+0)*2+(1+1)*MOSFET_16_4_W_gm5_NMOS)+(1+1-int((1+1)/2)*2)*(((1/2)*1e-07)*2+1*MOSFET_16_4_W_gm5_NMOS) ps=(1-int(1/2)*2)*((8.5e-08+((1-1)*1e-07)/2+0)*2+(1+1)*MOSFET_16_4_W_gm5_NMOS)+(1+1-int((1+1)/2)*2)*((8.5e-08+8.5e-08+(1/2-1)*1e-07+0+0)*2+(1+2)*MOSFET_16_4_W_gm5_NMOS) spa=120.0n spa1=120.0n dfm_flag=0
    M17 (net082 net063 GNDA GNDA) nch_ulvt_mac l=MOSFET_16_4_L_gm5_NMOS w=MOSFET_16_4_W_gm5_NMOS*1 multi=MOSFET_16_4_M_gm5_NMOS nf=1 sd=100n ad=((1-int(1/2)*2)*(8.5e-08+((1-1)*1e-07)/2+0)+(1+1-int((1+1)/2)*2)*((1/2)*1e-07))*MOSFET_16_4_W_gm5_NMOS as=((1-int(1/2)*2)*(8.5e-08+((1-1)*1e-07)/2+0)+(1+1-int((1+1)/2)*2)*(8.5e-08+8.5e-08+(1/2-1)*1e-07+0+0))*MOSFET_16_4_W_gm5_NMOS pd=(1-int(1/2)*2)*((8.5e-08+((1-1)*1e-07)/2+0)*2+(1+1)*MOSFET_16_4_W_gm5_NMOS)+(1+1-int((1+1)/2)*2)*(((1/2)*1e-07)*2+1*MOSFET_16_4_W_gm5_NMOS) ps=(1-int(1/2)*2)*((8.5e-08+((1-1)*1e-07)/2+0)*2+(1+1)*MOSFET_16_4_W_gm5_NMOS)+(1+1-int((1+1)/2)*2)*((8.5e-08+8.5e-08+(1/2-1)*1e-07+0+0)*2+(1+2)*MOSFET_16_4_W_gm5_NMOS) spa=120.0n spa1=120.0n dfm_flag=0
    M18 (VOUT net057 GNDA GNDA) nch_ulvt_mac l=MOSFET_18_1_L_gm3_NMOS w=MOSFET_18_1_W_gm3_NMOS*1 multi=MOSFET_18_1_M_gm3_NMOS nf=1 sd=100n ad=((1-int(1/2)*2)*(8.5e-08+((1-1)*1e-07)/2+0)+(1+1-int((1+1)/2)*2)*((1/2)*1e-07))*MOSFET_18_1_W_gm3_NMOS as=((1-int(1/2)*2)*(8.5e-08+((1-1)*1e-07)/2+0)+(1+1-int((1+1)/2)*2)*(8.5e-08+8.5e-08+(1/2-1)*1e-07+0+0))*MOSFET_18_1_W_gm3_NMOS pd=(1-int(1/2)*2)*((8.5e-08+((1-1)*1e-07)/2+0)*2+(1+1)*MOSFET_18_1_W_gm3_NMOS)+(1+1-int((1+1)/2)*2)*(((1/2)*1e-07)*2+1*MOSFET_18_1_W_gm3_NMOS) ps=(1-int(1/2)*2)*((8.5e-08+((1-1)*1e-07)/2+0)*2+(1+1)*MOSFET_18_1_W_gm3_NMOS)+(1+1-int((1+1)/2)*2)*((8.5e-08+8.5e-08+(1/2-1)*1e-07+0+0)*2+(1+2)*MOSFET_18_1_W_gm3_NMOS) spa=120.0n spa1=120.0n dfm_flag=0
    M22 (net094 net051 GNDA GNDA) nch_ulvt_mac l=MOSFET_22_1_L_gmb1_NMOS w=MOSFET_22_1_W_gmb1_NMOS*1 multi=MOSFET_22_1_M_gmb1_NMOS nf=1 sd=100n ad=((1-int(1/2)*2)*(8.5e-08+((1-1)*1e-07)/2+0)+(1+1-int((1+1)/2)*2)*((1/2)*1e-07))*MOSFET_22_1_W_gmb1_NMOS as=((1-int(1/2)*2)*(8.5e-08+((1-1)*1e-07)/2+0)+(1+1-int((1+1)/2)*2)*(8.5e-08+8.5e-08+(1/2-1)*1e-07+0+0))*MOSFET_22_1_W_gmb1_NMOS pd=(1-int(1/2)*2)*((8.5e-08+((1-1)*1e-07)/2+0)*2+(1+1)*MOSFET_22_1_W_gmb1_NMOS)+(1+1-int((1+1)/2)*2)*(((1/2)*1e-07)*2+1*MOSFET_22_1_W_gmb1_NMOS) ps=(1-int(1/2)*2)*((8.5e-08+((1-1)*1e-07)/2+0)*2+(1+1)*MOSFET_22_1_W_gmb1_NMOS)+(1+1-int((1+1)/2)*2)*((8.5e-08+8.5e-08+(1/2-1)*1e-07+0+0)*2+(1+2)*MOSFET_22_1_W_gmb1_NMOS) spa=120.0n spa1=120.0n dfm_flag=0
    M23 (net057 net094 GNDA GNDA) nch_ulvt_mac l=MOSFET_23_1_L_gmb2_NMOS w=MOSFET_23_1_W_gmb2_NMOS*1 multi=MOSFET_23_1_M_gmb2_NMOS nf=1 sd=100n ad=((1-int(1/2)*2)*(8.5e-08+((1-1)*1e-07)/2+0)+(1+1-int((1+1)/2)*2)*((1/2)*1e-07))*MOSFET_23_1_W_gmb2_NMOS as=((1-int(1/2)*2)*(8.5e-08+((1-1)*1e-07)/2+0)+(1+1-int((1+1)/2)*2)*(8.5e-08+8.5e-08+(1/2-1)*1e-07+0+0))*MOSFET_23_1_W_gmb2_NMOS pd=(1-int(1/2)*2)*((8.5e-08+((1-1)*1e-07)/2+0)*2+(1+1)*MOSFET_23_1_W_gmb2_NMOS)+(1+1-int((1+1)/2)*2)*(((1/2)*1e-07)*2+1*MOSFET_23_1_W_gmb2_NMOS) ps=(1-int(1/2)*2)*((8.5e-08+((1-1)*1e-07)/2+0)*2+(1+1)*MOSFET_23_1_W_gmb2_NMOS)+(1+1-int((1+1)/2)*2)*((8.5e-08+8.5e-08+(1/2-1)*1e-07+0+0)*2+(1+2)*MOSFET_23_1_W_gmb2_NMOS) spa=120.0n spa1=120.0n dfm_flag=0
    M20 (DM_2 VB4 GNDA GNDA) nch_ulvt_mac l=MOSFET_19_16_L_BIASCM_NMOS w=MOSFET_19_16_W_BIASCM_NMOS*1 multi=MOSFET_19_16_M_BIASCM_NMOS nf=1 sd=100n ad=((1-int(1/2)*2)*(8.5e-08+((1-1)*1e-07)/2+0)+(1+1-int((1+1)/2)*2)*((1/2)*1e-07))*MOSFET_19_16_W_BIASCM_NMOS as=((1-int(1/2)*2)*(8.5e-08+((1-1)*1e-07)/2+0)+(1+1-int((1+1)/2)*2)*(8.5e-08+8.5e-08+(1/2-1)*1e-07+0+0))*MOSFET_19_16_W_BIASCM_NMOS pd=(1-int(1/2)*2)*((8.5e-08+((1-1)*1e-07)/2+0)*2+(1+1)*MOSFET_19_16_W_BIASCM_NMOS)+(1+1-int((1+1)/2)*2)*(((1/2)*1e-07)*2+1*MOSFET_19_16_W_BIASCM_NMOS) ps=(1-int(1/2)*2)*((8.5e-08+((1-1)*1e-07)/2+0)*2+(1+1)*MOSFET_19_16_W_BIASCM_NMOS)+(1+1-int((1+1)/2)*2)*((8.5e-08+8.5e-08+(1/2-1)*1e-07+0+0)*2+(1+2)*MOSFET_19_16_W_BIASCM_NMOS) spa=120.0n spa1=120.0n dfm_flag=0
    M14 (VOUTN net077 DM_2 GNDA) nch_ulvt_mac l=MOSFET_14_4_L_gm8_NMOS w=MOSFET_14_4_W_gm8_NMOS*1 multi=MOSFET_14_4_M_gm8_NMOS nf=1 sd=100n ad=((1-int(1/2)*2)*(8.5e-08+((1-1)*1e-07)/2+0)+(1+1-int((1+1)/2)*2)*((1/2)*1e-07))*MOSFET_14_4_W_gm8_NMOS as=((1-int(1/2)*2)*(8.5e-08+((1-1)*1e-07)/2+0)+(1+1-int((1+1)/2)*2)*(8.5e-08+8.5e-08+(1/2-1)*1e-07+0+0))*MOSFET_14_4_W_gm8_NMOS pd=(1-int(1/2)*2)*((8.5e-08+((1-1)*1e-07)/2+0)*2+(1+1)*MOSFET_14_4_W_gm8_NMOS)+(1+1-int((1+1)/2)*2)*(((1/2)*1e-07)*2+1*MOSFET_14_4_W_gm8_NMOS) ps=(1-int(1/2)*2)*((8.5e-08+((1-1)*1e-07)/2+0)*2+(1+1)*MOSFET_14_4_W_gm8_NMOS)+(1+1-int((1+1)/2)*2)*((8.5e-08+8.5e-08+(1/2-1)*1e-07+0+0)*2+(1+2)*MOSFET_14_4_W_gm8_NMOS) spa=120.0n spa1=120.0n dfm_flag=0
    M21 (net063 VB4 GNDA GNDA) nch_ulvt_mac l=MOSFET_19_16_L_BIASCM_NMOS w=MOSFET_19_16_W_BIASCM_NMOS*1 multi=MOSFET_19_16_M_BIASCM_NMOS nf=1 sd=100n ad=((1-int(1/2)*2)*(8.5e-08+((1-1)*1e-07)/2+0)+(1+1-int((1+1)/2)*2)*((1/2)*1e-07))*MOSFET_19_16_W_BIASCM_NMOS as=((1-int(1/2)*2)*(8.5e-08+((1-1)*1e-07)/2+0)+(1+1-int((1+1)/2)*2)*(8.5e-08+8.5e-08+(1/2-1)*1e-07+0+0))*MOSFET_19_16_W_BIASCM_NMOS pd=(1-int(1/2)*2)*((8.5e-08+((1-1)*1e-07)/2+0)*2+(1+1)*MOSFET_19_16_W_BIASCM_NMOS)+(1+1-int((1+1)/2)*2)*(((1/2)*1e-07)*2+1*MOSFET_19_16_W_BIASCM_NMOS) ps=(1-int(1/2)*2)*((8.5e-08+((1-1)*1e-07)/2+0)*2+(1+1)*MOSFET_19_16_W_BIASCM_NMOS)+(1+1-int((1+1)/2)*2)*((8.5e-08+8.5e-08+(1/2-1)*1e-07+0+0)*2+(1+2)*MOSFET_19_16_W_BIASCM_NMOS) spa=120.0n spa1=120.0n dfm_flag=0
    M15 (net050 net082 net063 GNDA) nch_ulvt_mac l=MOSFET_14_4_L_gm8_NMOS w=MOSFET_14_4_W_gm8_NMOS*1 multi=MOSFET_14_4_M_gm8_NMOS nf=1 sd=100n ad=((1-int(1/2)*2)*(8.5e-08+((1-1)*1e-07)/2+0)+(1+1-int((1+1)/2)*2)*((1/2)*1e-07))*MOSFET_14_4_W_gm8_NMOS as=((1-int(1/2)*2)*(8.5e-08+((1-1)*1e-07)/2+0)+(1+1-int((1+1)/2)*2)*(8.5e-08+8.5e-08+(1/2-1)*1e-07+0+0))*MOSFET_14_4_W_gm8_NMOS pd=(1-int(1/2)*2)*((8.5e-08+((1-1)*1e-07)/2+0)*2+(1+1)*MOSFET_14_4_W_gm8_NMOS)+(1+1-int((1+1)/2)*2)*(((1/2)*1e-07)*2+1*MOSFET_14_4_W_gm8_NMOS) ps=(1-int(1/2)*2)*((8.5e-08+((1-1)*1e-07)/2+0)*2+(1+1)*MOSFET_14_4_W_gm8_NMOS)+(1+1-int((1+1)/2)*2)*((8.5e-08+8.5e-08+(1/2-1)*1e-07+0+0)*2+(1+2)*MOSFET_14_4_W_gm8_NMOS) spa=120.0n spa1=120.0n dfm_flag=0
    M19 (VB4 VB4 GNDA GNDA) nch_ulvt_mac l=MOSFET_19_16_L_BIASCM_NMOS w=MOSFET_19_16_W_BIASCM_NMOS*1 multi=MOSFET_19_16_M_BIASCM_NMOS nf=1 sd=100n ad=((1-int(1/2)*2)*(8.5e-08+((1-1)*1e-07)/2+0)+(1+1-int((1+1)/2)*2)*((1/2)*1e-07))*MOSFET_19_16_W_BIASCM_NMOS as=((1-int(1/2)*2)*(8.5e-08+((1-1)*1e-07)/2+0)+(1+1-int((1+1)/2)*2)*(8.5e-08+8.5e-08+(1/2-1)*1e-07+0+0))*MOSFET_19_16_W_BIASCM_NMOS pd=(1-int(1/2)*2)*((8.5e-08+((1-1)*1e-07)/2+0)*2+(1+1)*MOSFET_19_16_W_BIASCM_NMOS)+(1+1-int((1+1)/2)*2)*(((1/2)*1e-07)*2+1*MOSFET_19_16_W_BIASCM_NMOS) ps=(1-int(1/2)*2)*((8.5e-08+((1-1)*1e-07)/2+0)*2+(1+1)*MOSFET_19_16_W_BIASCM_NMOS)+(1+1-int((1+1)/2)*2)*((8.5e-08+8.5e-08+(1/2-1)*1e-07+0+0)*2+(1+2)*MOSFET_19_16_W_BIASCM_NMOS) spa=120.0n spa1=120.0n dfm_flag=0
    I0 (VB1 GNDA) isource dc=CURRENT_1_BIAS type=dc
    C1 (net051 GNDA) capacitor c=CAPACITOR_0
    C0 (net063 VOUT) capacitor c=CAPACITOR_1
    R2 (net094 net051) resistor r=RESISTOR_0
    R1 (net078 net082) resistor r=RESISTOR_2
    R0 (net078 net077) resistor r=RESISTOR_1
ends Yan_AZ_Pin_3
// End of subcircuit definition.

// Library name: TSMC22ULL_Std_AMP_LIB
// Cell name: TB_Yan_AZ_Pin_3
// View name: schematic
V8 (VDD_PSRR 0) vsource dc=VDD mag=1 type=dc
V7 (VIN_P_PSRR 0) vsource dc=VCM mag=0 phase=0 type=dc
V6 (VIN_P_CMRR_TB net17) vsource dc=0 mag=1 phase=0 type=dc
V5 (VIN_M_CMRR_TB VOUT_CMRR_TB) vsource dc=0 mag=1 phase=0 type=dc
V3 (net17 0) vsource dc=VCM mag=0 phase=0 type=dc
V2 (VINP 0) vsource dc=VCM mag=1 phase=0 type=dc
V0 (VDD 0) vsource dc=VDD type=dc
C2 (VOUT_PSRR 0) capacitor c=CLOAD
C1 (VOUT_CMRR_TB 0) capacitor c=CLOAD
C0 (VOUT 0) capacitor c=CLOAD
I34 (0 VDD VIN_M VINP VOUT) Yan_AZ_Pin_3
I33 (0 VDD_PSRR VIN_M_PSRR VIN_P_PSRR VOUT_PSRR) Yan_AZ_Pin_3
I32 (0 VDD VIN_M_CMRR_TB VIN_P_CMRR_TB VOUT_CMRR_TB) Yan_AZ_Pin_3
IPRB2 (VOUT_PSRR VIN_M_PSRR) iprobe
IPRB0 (VOUT VIN_M) iprobe
simulatorOptions options psfversion="1.4.0" reltol=1e-3 vabstol=1e-6 \
    iabstol=1e-12 temp=27.0 tnom=27 scalem=1.0 scale=1.0 gmin=1e-12 \
    rforce=1 maxnotes=5 maxwarns=5 digits=5 cols=80 pivrel=1e-3 \
    sensfile="../psf/sens.output" checklimitdest=psf 
ac ac start=0.01 stop=10G annotate=status 
stb stb start=0.01 stop=100G probe=IPRB0 localgnd=0 annotate=status 
dcOp dc write="spectre.dc" maxiters=150 maxsteps=10000 annotate=status
dcOpInfo info what=oppoint where=rawfile
dc dc param=temp start=-50 stop=150 oppoint=rawfile maxiters=150 \
    maxsteps=10000 annotate=status
noise ( VOUT 0 ) noise start=1 stop=10G iprobe=V2 annotate=status 
pz ( VOUT 0 ) pz iprobe=V2 freq=1 param=VCM start=0 stop=600m 
modelParameter info what=models where=rawfile
element info what=inst where=rawfile
outputParameter info what=output where=rawfile
designParamVals info what=parameters where=rawfile
primitives info what=primitives where=rawfile
subckts info what=subckts where=rawfile
save VOUT VINP VOUT_CMRR_TB VOUT_PSRR V8:p 
saveOptions options save=selected
